380
Properties=species:S:1:pos:R:3 pbc="F F F"
N      56.35000000      24.85000000      19.88700000 
C      55.54000000      24.18900000      20.91000000 
C      56.30700000      23.04100000      21.58100000 
O      56.24100000      22.90000000      22.81800000 
C      54.18200000      23.75700000      20.26300000 
C      53.19200000      24.93400000      20.39500000 
C      53.58400000      22.44400000      20.80100000 
C      51.76800000      24.63900000      19.96500000 
H      56.03100000      24.78600000      18.94200000 
H      55.35300000      24.86700000      21.71100000 
H      54.36700000      23.60400000      19.21000000 
H      53.17800000      25.26100000      21.45500000 
H      53.58000000      25.77200000      19.83900000 
H      52.77500000      22.13400000      20.17700000 
H      54.32400000      21.63600000      20.79000000 
H      53.22300000      22.55800000      21.80900000 
H      51.16200000      25.55400000      19.98100000 
H      51.73500000      24.24100000      18.95300000 
H      51.28600000      23.92600000      20.62000000 
N      57.03700000      22.20800000      20.82000000 
C      57.73400000      21.08100000      21.40700000 
C      58.92500000      21.51800000      22.26700000 
O      59.30500000      20.78400000      23.17600000 
C      58.26500000      20.12700000      20.30200000 
C      58.23100000      18.64300000      20.71900000 
C      56.86900000      18.02200000      20.37600000 
C      59.37800000      17.86600000      20.06600000 
H      57.01600000      22.31200000      19.81900000 
H      57.06500000      20.55600000      22.05100000 
H      57.66000000      20.25400000      19.41000000 
H      59.26200000      20.42100000      20.02700000 
H      58.36900000      18.58700000      21.79800000 
H      56.80500000      16.98600000      20.73300000 
H      56.04900000      18.58100000      20.82800000 
H      56.71800000      18.01400000      19.28900000 
H      59.33900000      16.80600000      20.34400000 
H      59.33200000      17.92700000      18.98600000 
H      60.34100000      18.25500000      20.38700000 
N      59.38200000      23.78200000      24.49000000 
C      59.17800000      24.17700000      25.85900000 
C      59.61700000      23.03900000      26.76700000 
O      59.09100000      21.90800000      26.65800000 
C      57.71200000      24.48000000      26.15100000 
C      57.04500000      25.52300000      25.24300000 
S      57.79000000      27.23000000      25.42700000 
C      56.55600000      28.18900000      24.36300000 
H      58.57700000      23.63000000      23.89000000 
H      59.80200000      25.06700000      26.06300000 
H      57.15000000      23.56600000      26.05000000 
H      57.62800000      24.79800000      27.18900000 
H      57.07800000      25.25400000      24.21500000 
H      56.00000000      25.61200000      25.54600000 
H      56.85100000      29.22100000      24.39700000 
H      56.59600000      27.81500000      23.35900000 
H      55.56900000      28.06700000      24.77900000 
N      59.57400000      22.57700000      30.83400000 
C      58.89500000      23.21400000      31.95700000 
C      58.69700000      22.17300000      33.02000000 
O      58.42900000      20.99500000      32.72600000 
C      57.51600000      23.80200000      31.49000000 
C      56.64700000      22.79400000      30.81000000 
C      56.88300000      22.41100000      29.49600000 
C      55.62400000      22.11300000      31.50000000 
C      56.19600000      21.35900000      28.91500000 
C      54.94400000      21.07300000      30.92700000 
C      55.23300000      20.67300000      29.62400000 
O      54.53800000      19.60900000      29.09500000 
H      59.23000000      21.66300000      30.60500000 
H      59.50700000      24.01100000      32.31300000 
H      57.03400000      24.25300000      32.34600000 
H      57.75500000      24.62500000      30.80800000 
H      57.60500000      22.93100000      28.93100000 
H      55.39700000      22.39500000      32.52400000 
H      56.41300000      21.07500000      27.89200000 
H      54.17800000      20.53900000      31.48100000 
H      54.78700000      19.34000000      28.18800000 
N      41.66000000      28.51500000      24.37000000 
C      43.10500000      28.68700000      24.65100000 
C      43.19100000      29.68000000      25.82100000 
O      42.96600000      30.88500000      25.66800000 
C      43.91300000      29.14700000      23.42600000 
C      45.34100000      28.54800000      23.39800000 
C      45.27900000      27.01100000      23.17400000 
C      46.16800000      29.20900000      22.27800000 
H      41.05500000      29.25300000      24.61700000 
H      43.45600000      27.73900000      24.96900000 
H      43.40100000      28.81900000      22.52600000 
H      43.97500000      30.23900000      23.39500000 
H      45.82100000      28.74400000      24.34700000 
H      46.27200000      26.61700000      22.97500000 
H      44.88600000      26.49800000      24.04900000 
H      44.64200000      26.79000000      22.33700000 
H      47.16000000      28.79400000      22.23900000 
H      45.68500000      29.05700000      21.32200000 
H      46.24600000      30.28700000      22.45300000 
N      40.81800000      14.43200000      21.00600000 
C      42.15200000      14.79800000      21.44400000 
C      42.96700000      15.29800000      20.25100000 
O      42.86600000      14.80900000      19.12600000 
C      42.84200000      13.64100000      22.14300000 
H      40.58400000      13.44900000      20.94000000 
H      42.05000000      15.62200000      22.13400000 
H      43.81300000      13.92800000      22.50500000 
H      42.23900000      13.33500000      23.00900000 
H      42.94900000      12.78000000      21.48700000 
N      43.81400000      16.31300000      20.52700000 
C      44.48100000      17.09500000      19.48300000 
C      45.92500000      16.62400000      19.33200000 
O      46.73300000      16.68900000      20.23900000 
C      44.44300000      18.58700000      19.86700000 
C      45.29600000      19.39400000      18.88400000 
C      43.00100000      19.10600000      19.91300000 
H      43.83500000      16.68300000      21.45600000 
H      43.93800000      16.94100000      18.56200000 
H      44.87800000      18.66800000      20.86900000 
H      45.17000000      20.45600000      19.06400000 
H      46.35400000      19.17600000      18.99100000 
H      45.00900000      19.19000000      17.86300000 
H      43.00300000      20.12100000      20.28600000 
H      42.57500000      19.11100000      18.91400000 
H      42.37800000      18.51400000      20.55100000 
N      46.25700000      16.15800000      18.10100000 
C      47.55000000      15.55500000      17.82800000 
C      48.66900000      16.54900000      17.60100000 
O      49.85600000      16.16600000      17.82300000 
C      47.43900000      14.61200000      16.60800000 
C      47.41700000      13.11000000      16.90900000 
C      46.14000000      12.54800000      17.55800000 
C      45.90600000      12.78300000      19.05500000 
N      46.94900000      12.08400000      19.91200000 
H      45.56400000      16.12800000      17.39300000 
H      47.85700000      14.99700000      18.69000000 
H      46.57700000      14.89200000      16.01300000 
H      48.30400000      14.79500000      15.94900000 
H      47.52900000      12.60200000      15.95900000 
H      48.29800000      12.85500000      17.48400000 
H      45.27800000      12.94200000      17.04900000 
H      46.12900000      11.47800000      17.39200000 
H      45.92700000      13.81600000      19.32500000 
H      44.95800000      12.37300000      19.34300000 
H      46.74100000      12.25200000      20.88800000 
H      46.95100000      11.11300000      19.76300000 
H      47.87400000      12.45000000      19.75000000 
N      48.38600000      17.75400000      17.09300000 
C      49.41100000      18.67500000      16.62600000 
C      48.82700000      20.06900000      16.67900000 
O      47.66800000      20.24900000      17.07200000 
C      49.85700000      18.28200000      15.18800000 
C      50.98500000      17.26100000      15.18100000 
O      51.99400000      17.46000000      15.80100000 
N      50.76800000      16.16200000      14.43400000 
H      47.45400000      18.03800000      16.99500000 
H      50.26800000      18.62800000      17.27200000 
H      48.99200000      17.95000000      14.63500000 
H      50.25200000      19.14300000      14.64900000 
H      51.49700000      15.48300000      14.38300000 
H      49.93700000      15.99200000      13.93900000 
N      49.55500000      21.13200000      16.27200000 
C      48.97500000      22.49800000      16.34700000 
C      47.87800000      22.74600000      15.34400000 
O      47.34000000      23.89300000      15.34500000 
C      50.19000000      23.42100000      16.12100000 
C      51.40900000      22.56800000      16.41900000 
C      50.99900000      21.17500000      15.96000000 
H      48.55900000      22.64700000      17.32100000 
H      50.22100000      23.76400000      15.09300000 
H      50.12100000      24.30000000      16.74000000 
H      52.29600000      22.91800000      15.93200000 
H      51.59900000      22.54000000      17.50100000 
H      51.15000000      21.07200000      14.90000000 
H      51.52200000      20.38900000      16.45600000 
N      44.78600000      24.26200000      16.79800000 
C      45.11300000      25.43800000      17.57100000 
C      45.26200000      26.67400000      16.68700000 
O      44.90500000      27.77900000      17.11000000 
C      46.36500000      25.25400000      18.47000000 
C      46.46100000      26.38700000      19.48100000 
C      46.30100000      23.91300000      19.18100000 
H      45.48900000      23.85700000      16.19700000 
H      44.26900000      25.64500000      18.21900000 
H      47.24600000      25.27500000      17.83500000 
H      47.34900000      26.25300000      20.11700000 
H      46.52500000      27.35800000      19.04000000 
H      45.58500000      26.37900000      20.15300000 
H      47.15200000      23.83400000      19.85000000 
H      45.40200000      23.82800000      19.77800000 
H      46.34100000      23.07900000      18.50700000 
N      52.29400000      28.70700000      29.49900000 
C      51.80300000      27.93600000      28.35900000 
C      50.26400000      28.00400000      28.16200000 
O      49.53200000      28.77500000      28.80300000 
C      52.34100000      26.52600000      28.62200000 
C      52.42600000      26.44800000      30.13600000 
C      52.85500000      27.85300000      30.57700000 
H      52.21000000      28.33700000      27.44100000 
H      51.71200000      25.74200000      28.19900000 
H      53.35300000      26.46600000      28.17900000 
H      51.46900000      26.20500000      30.57900000 
H      53.13700000      25.69700000      30.48100000 
H      52.49600000      28.14300000      31.53900000 
H      53.94200000      27.93600000      30.54100000 
N      49.79100000      27.22500000      27.17400000 
C      48.50800000      27.32600000      26.52400000 
C      47.67800000      26.08600000      26.81200000 
O      48.14200000      24.95000000      26.77600000 
C      48.65400000      27.56200000      24.99000000 
C      49.84100000      26.84700000      24.31000000 
C      49.44400000      26.41700000      22.88100000 
C      51.09300000      27.74300000      24.22600000 
H      50.43500000      26.57900000      26.75900000 
H      48.01600000      28.19000000      26.96900000 
H      47.72400000      27.26700000      24.54300000 
H      48.74000000      28.61900000      24.84500000 
H      50.06800000      25.93000000      24.85500000 
H      50.27500000      25.89200000      22.41500000 
H      48.59800000      25.75200000      22.88200000 
H      49.21500000      27.27700000      22.26200000 
H      51.94100000      27.15700000      23.86900000 
H      50.91900000      28.56400000      23.53900000 
H      51.35000000      28.15500000      25.20400000 
N      43.57700000      24.08500000      26.75800000 
C      42.31700000      23.98400000      25.99100000 
C      41.27000000      23.26200000      26.81800000 
O      41.54900000      22.23800000      27.47800000 
C      42.55600000      23.36500000      24.58000000 
C      42.54500000      21.86500000      24.37700000 
C      43.56900000      21.04300000      24.86700000 
C      41.56500000      21.29500000      23.62000000 
C      43.56400000      19.67900000      24.63100000 
C      41.54600000      19.90500000      23.35500000 
C      42.55500000      19.10800000      23.88200000 
O      42.51800000      17.75000000      23.59800000 
H      43.98700000      23.24900000      27.08700000 
H      41.99300000      24.98300000      25.82700000 
H      41.81900000      23.79500000      23.92900000 
H      43.51600000      23.78100000      24.24900000 
H      44.36300000      21.45500000      25.45400000 
H      40.77500000      21.88800000      23.20300000 
H      44.35200000      19.05700000      25.00700000 
H      40.78100000      19.47400000      22.76300000 
H      42.64300000      17.19000000      24.32400000 
N      46.14900000      20.51400000      28.82900000 
C      47.07400000      21.46700000      28.26900000 
C      47.48400000      21.03300000      26.86500000 
O      47.68100000      19.83900000      26.60500000 
C      48.34000000      21.61200000      29.14800000 
C      48.16600000      22.26600000      30.51200000 
C      47.03900000      22.06400000      31.30700000 
C      49.16800000      23.06900000      30.99900000 
C      46.93400000      22.67600000      32.55700000 
C      49.10100000      23.64400000      32.25200000 
C      47.95600000      23.46300000      33.03500000 
H      46.44700000      19.75300000      29.36000000 
H      46.60000000      22.42900000      28.22000000 
H      48.79600000      20.63500000      29.23700000 
H      49.04800000      22.22300000      28.57600000 
H      46.23900000      21.45300000      30.98000000 
H      50.04600000      23.26700000      30.40200000 
H      46.05400000      22.51600000      33.14400000 
H      49.91800000      24.26200000      32.62100000 
H      47.89100000      23.92800000      34.00500000 
N      47.63300000      22.01900000      25.96100000 
C      47.95300000      21.73000000      24.58200000 
C      49.42700000      21.97400000      24.36000000 
O      49.88000000      23.14500000      24.39300000 
C      47.09000000      22.60800000      23.65600000 
C      46.98400000      22.10700000      22.20400000 
C      48.31400000      22.03700000      21.44700000 
C      46.22200000      20.78800000      22.09900000 
H      47.54000000      22.96400000      26.24800000 
H      47.71900000      20.70400000      24.42000000 
H      46.11200000      22.66200000      24.06900000 
H      47.50300000      23.62800000      23.66200000 
H      46.38600000      22.84400000      21.70300000 
H      48.14000000      21.80300000      20.39500000 
H      48.87600000      22.95800000      21.50400000 
H      48.95000000      21.23100000      21.83200000 
H      46.17700000      20.47800000      21.06800000 
H      46.73500000      19.98100000      22.65300000 
H      45.22400000      20.87500000      22.48900000 
N      50.19500000      20.91400000      24.16100000 
C      51.57300000      20.91900000      23.66400000 
C      51.95900000      19.46100000      23.48600000 
O      52.31100000      18.99200000      22.37700000 
C      52.62500000      21.58700000      24.57400000 
C      52.83900000      23.11100000      24.36600000 
C      53.37700000      23.81400000      25.61100000 
N      52.51300000      23.54600000      26.76800000 
C      52.93400000      23.42600000      28.00700000 
N      54.14300000      23.84900000      28.34300000 
N      52.11500000      22.87800000      28.91700000 
H      49.72300000      20.01500000      24.14800000 
H      51.58900000      21.35900000      22.67300000 
H      52.34300000      21.39600000      25.59300000 
H      53.56300000      21.11000000      24.42300000 
H      53.55500000      23.27100000      23.58600000 
H      51.90800000      23.57900000      24.06500000 
H      54.36500000      23.40900000      25.83300000 
H      53.46600000      24.86400000      25.42500000 
H      51.53900000      23.40200000      26.57100000 
H      54.71700000      24.36200000      27.74800000 
H      54.51100000      23.63500000      29.26500000 
H      51.31100000      22.42200000      28.65900000 
H      52.39600000      22.87800000      29.89200000 
N      51.91000000      18.71800000      24.61000000 
C      52.47300000      17.40000000      24.76600000 
C      51.44600000      16.32300000      25.04300000 
O      51.79100000      15.12000000      25.07100000 
C      53.51500000      17.42800000      25.89500000 
C      54.68900000      18.33600000      25.60600000 
O      55.07700000      18.48900000      24.40200000 
O      55.24000000      18.88700000      26.61400000 
H      51.68100000      19.19200000      25.45400000 
H      52.95800000      17.12600000      23.83400000 
H      53.04300000      17.73400000      26.80900000 
H      53.90900000      16.41000000      26.05000000 
N      50.16700000      16.69900000      25.30600000 
C      49.07600000      15.77000000      25.57400000 
C      49.21900000      14.99700000      26.90700000 
O      48.55000000      13.97200000      27.05900000 
C      48.77400000      14.81100000      24.40200000 
C      47.80400000      15.38700000      23.36000000 
O      46.82500000      14.70500000      23.02100000 
N      48.07800000      16.55600000      22.84100000 
H      49.95100000      17.64800000      25.27900000 
H      48.21300000      16.40000000      25.74700000 
H      49.66700000      14.53200000      23.91100000 
H      48.30600000      13.92500000      24.78400000 
H      47.51500000      16.89100000      22.06700000 
H      48.89900000      17.07900000      23.06700000 
N      49.99200000      15.52200000      27.84200000 
C      50.12700000      14.91500000      29.16600000 
C      49.55500000      15.76000000      30.30900000 
O      49.10500000      15.16000000      31.30300000 
C      51.56900000      14.48200000      29.53500000 
C      51.85600000      13.08500000      28.92000000 
C      52.64300000      15.50300000      29.12900000 
H      50.55000000      16.31500000      27.62300000 
H      49.49000000      14.03000000      29.15600000 
H      51.58700000      14.37800000      30.61800000 
H      52.86600000      12.78100000      29.17700000 
H      51.16500000      12.35100000      29.32600000 
H      51.76100000      13.11500000      27.84900000 
H      53.58600000      15.21800000      29.55800000 
H      52.76600000      15.50100000      28.03900000 
H      52.40300000      16.49200000      29.44900000 
N      49.62000000      17.08100000      30.27200000 
C      49.26800000      17.89600000      31.43500000 
C      47.76600000      18.15400000      31.44100000 
O      47.16400000      18.38300000      30.36400000 
C      50.05700000      19.22900000      31.42500000 
C      49.86700000      20.00800000      32.73500000 
C      51.55000000      19.01900000      31.14600000 
H      49.89100000      17.55800000      29.42700000 
H      49.54100000      17.34000000      32.30100000 
H      49.66100000      19.84600000      30.61800000 
H      50.45400000      20.92100000      32.70600000 
H      48.84600000      20.28000000      32.91600000 
H      50.22000000      19.41700000      33.56900000 
H      52.06900000      19.95600000      31.29700000 
H      51.97500000      18.28700000      31.82000000 
H      51.74100000      18.71000000      30.13700000 
H      56.39905901      25.73077822      20.06538984 
H      59.38059969      22.38925741      22.08440909 
H      59.86105480      24.41326682      24.06337523 
H      60.32763472      23.19281955      27.45354049 
H      59.47773449      23.08504553      30.09737073 
H      58.78008405      22.42168734      33.98501381 
H      41.53797326      28.39498084      23.48642495 
H      43.43435289      29.35575781      26.73513696 
H      40.21045703      14.77488448      21.57461390 
H      47.60318322      22.01983272      14.71379621 
H      44.55326955      23.59281166      17.35299866 
H      45.64761905      26.58815033      15.76834458 
H      52.87308691      29.33300205      29.21128524 
H      46.70919556      26.17538312      27.04314630 
H      44.20970385      24.47043178      26.24699298 
H      40.33050232      23.60356909      26.84397428 
H      45.58280294      20.93674012      29.38641518 
H      47.25985723      18.14083746      32.30334926 
