503
Properties=species:S:1:pos:R:3 pbc="F F F"
N      33.31000000      24.61400000      22.75200000 
C      32.94200000      25.72700000      23.59900000 
C      34.27800000      26.06500000      24.20000000 
O      34.52600000      27.64200000      24.20500000 
C      31.86100000      25.52200000      24.43600000 
C      31.27100000      26.76000000      25.33400000 
C      30.88000000      27.77900000      24.39700000 
C      30.20100000      26.18700000      26.16500000 
H      32.80100000      23.64300000      23.04900000 
H      32.72200000      26.53100000      22.80000000 
H      30.97800000      25.12000000      23.87400000 
H      32.09700000      24.67600000      25.18100000 
H      32.21600000      27.06300000      25.92800000 
H      30.51700000      28.75100000      25.11700000 
H      31.71200000      28.32100000      23.78400000 
H      30.09200000      27.60500000      23.80600000 
H      29.88500000      27.11800000      26.87200000 
H      29.38600000      25.94300000      25.66400000 
H      30.51300000      25.49700000      26.86400000 
N      35.07600000      25.33500000      24.86900000 
C      36.21700000      25.92600000      25.44400000 
C      37.35200000      26.37900000      24.32300000 
O      37.90100000      27.38700000      24.69400000 
C      36.91700000      24.53400000      26.24300000 
C      36.14300000      24.32800000      27.53400000 
C      38.40600000      25.10500000      26.74500000 
C      36.39500000      22.99600000      28.12000000 
H      34.82500000      24.45400000      24.86500000 
H      36.09800000      26.59600000      26.10900000 
H      36.96700000      23.84600000      25.65500000 
H      36.19500000      25.11100000      28.24000000 
H      34.96800000      24.35900000      27.20300000 
H      38.78800000      24.18300000      27.30700000 
H      39.05000000      25.10100000      25.85900000 
H      38.40000000      25.87100000      27.25800000 
H      35.69100000      22.76600000      28.97100000 
H      36.24100000      22.16600000      27.39400000 
H      37.38800000      22.90700000      28.49700000 
N      36.19400000      29.97000000      23.50700000 
C      36.52800000      30.92100000      24.55700000 
C      38.10400000      31.43200000      24.41600000 
O      38.39400000      32.22200000      24.58500000 
C      36.18500000      30.41500000      25.84100000 
S      34.42600000      30.30200000      26.26000000 
H      35.74300000      29.09400000      23.76200000 
H      36.04900000      31.89900000      24.26600000 
H      36.62000000      29.48300000      26.05900000 
H      36.66200000      31.15700000      26.60000000 
H      34.11200000      31.73300000      26.29300000 
N      38.84700000      30.37200000      24.19600000 
C      40.30600000      30.44600000      24.13800000 
C      40.69800000      31.27400000      22.99300000 
O      41.52900000      32.30700000      23.06100000 
C      41.09300000      29.05400000      23.96900000 
O      40.70600000      28.26900000      25.26200000 
C      42.43700000      29.15800000      23.97300000 
H      38.48900000      29.26200000      24.09700000 
H      40.66200000      30.93100000      24.95900000 
H      40.61400000      28.51900000      23.10900000 
H      39.81300000      27.85500000      25.13400000 
H      42.94300000      28.18500000      23.92800000 
H      42.84300000      29.67600000      22.97400000 
H      42.92500000      29.72100000      24.77100000 
N      39.95400000      35.29300000      23.15900000 
C      40.70900000      36.31700000      23.88300000 
C      41.80500000      36.98500000      22.94200000 
O      42.29900000      37.82900000      23.38600000 
C      41.22000000      35.61100000      25.07100000 
C      40.26500000      35.34600000      26.19000000 
C      40.97000000      34.71100000      27.35700000 
C      39.57700000      36.61600000      26.75500000 
H      39.87500000      34.39700000      23.33900000 
H      40.08700000      37.06200000      24.08300000 
H      41.78100000      34.69700000      24.80300000 
H      42.08400000      36.31600000      25.46500000 
H      39.54100000      34.68400000      25.88400000 
H      40.32000000      34.48500000      28.21300000 
H      41.48500000      33.75500000      27.08900000 
H      41.79700000      35.34200000      27.79300000 
H      38.94500000      36.42500000      27.56000000 
H      40.29000000      37.38600000      27.00800000 
H      38.93200000      37.08900000      25.91700000 
N      29.52500000      32.74900000      19.24900000 
C      28.90000000      32.04800000      20.50400000 
C      27.23300000      31.60600000      20.16300000 
O      27.13700000      30.46700000      20.56900000 
C      29.02200000      33.00200000      21.60600000 
C      30.26000000      33.02800000      22.34700000 
C      30.60400000      31.95300000      23.29200000 
C      31.20700000      33.98000000      22.19700000 
C      31.77500000      31.92100000      23.83600000 
C      32.43700000      33.77600000      22.90500000 
C      32.59000000      32.86200000      23.61800000 
H      29.74900000      33.39500000      19.20200000 
H      29.43500000      31.11800000      20.77500000 
H      28.71600000      34.06800000      21.22700000 
H      28.10800000      32.79100000      22.33500000 
H      29.79100000      31.18500000      23.40500000 
H      31.00400000      34.83800000      21.49000000 
H      31.95700000      31.07700000      24.53200000 
H      33.23700000      34.77000000      22.63800000 
H      33.71500000      32.82000000      24.16300000 
N      27.20900000      20.61700000      27.24000000 
C      27.03200000      21.74200000      27.94700000 
C      25.64100000      22.43300000      27.66300000 
O      25.29700000      22.53100000      26.75900000 
C      28.11000000      22.86600000      27.66300000 
C      27.86700000      24.11700000      28.47200000 
C      29.51700000      22.11300000      27.89500000 
H      27.48200000      20.73100000      26.15600000 
H      27.16300000      21.49100000      29.06800000 
H      28.01400000      23.11600000      26.59700000 
H      28.77000000      24.82300000      28.31600000 
H      27.04900000      24.58800000      28.30500000 
H      27.96500000      23.84800000      29.60100000 
H      30.32700000      23.10700000      27.63000000 
H      29.67600000      21.96200000      28.80400000 
H      29.72600000      21.52500000      27.22700000 
N      21.70200000      26.03400000      32.48500000 
C      22.07100000      25.69900000      33.68800000 
C      22.03800000      27.03200000      34.67200000 
O      22.19300000      28.10100000      34.10100000 
C      23.35200000      25.27600000      33.72600000 
C      24.15700000      24.90200000      34.98200000 
O      24.73500000      25.81300000      35.53000000 
N      23.97900000      23.78200000      35.66800000 
H      22.28600000      26.00800000      31.62100000 
H      21.39200000      25.04000000      34.13100000 
H      23.40900000      24.11500000      33.06100000 
H      24.13800000      25.79700000      33.09200000 
H      24.32500000      23.59700000      36.45800000 
H      23.39100000      22.95900000      35.16100000 
N      23.89800000      28.43800000      36.76100000 
C      25.26100000      29.09900000      36.86300000 
C      25.49000000      29.67300000      35.36100000 
O      25.90200000      30.93100000      35.35200000 
C      26.33800000      28.36400000      37.50200000 
C      27.60600000      29.20300000      37.59600000 
C      25.92800000      27.67500000      38.65300000 
H      24.05900000      27.31800000      36.54800000 
H      24.96400000      30.04300000      37.49300000 
H      26.59200000      27.51200000      36.68500000 
H      28.39900000      28.64100000      37.96700000 
H      27.95000000      29.67100000      36.58400000 
H      27.38500000      30.05500000      38.26100000 
H      26.87400000      27.15400000      39.18100000 
H      25.68400000      28.48600000      39.50700000 
H      25.20800000      27.01300000      38.68200000 
N      25.43800000      28.98100000      34.37400000 
C      25.75300000      29.38700000      33.18700000 
C      24.88600000      30.32600000      32.45000000 
O      25.39700000      31.25500000      31.67400000 
C      26.03200000      28.17700000      32.08400000 
C      27.13500000      27.11300000      32.36100000 
C      27.23500000      26.18600000      31.36500000 
C      28.39700000      27.83600000      32.88100000 
H      25.08500000      27.93400000      34.50700000 
H      26.79400000      29.89300000      33.18300000 
H      25.08000000      27.69800000      31.95000000 
H      26.27400000      28.63900000      31.11400000 
H      26.78400000      26.63200000      33.31300000 
H      28.01800000      25.47000000      31.51100000 
H      26.40600000      25.72600000      31.02600000 
H      27.65100000      26.77600000      30.34300000 
H      29.23900000      27.05300000      32.95800000 
H      28.80700000      28.50200000      31.92400000 
H      28.41500000      28.43500000      33.70000000 
N      25.66900000      34.19800000      32.86300000 
C      27.09100000      34.40600000      32.25300000 
C      26.79300000      34.17200000      30.86200000 
O      27.64500000      35.48600000      30.03200000 
C      28.00000000      33.48100000      32.78100000 
C      28.46600000      33.43500000      34.17200000 
C      29.34100000      32.20800000      34.64600000 
C      28.95900000      34.71600000      34.51400000 
H      25.56700000      33.16700000      33.20400000 
H      27.32300000      35.36600000      32.58300000 
H      27.69500000      32.28500000      32.45600000 
H      29.04000000      33.53600000      32.15600000 
H      27.41600000      33.31800000      34.82000000 
H      29.48200000      32.21800000      35.61200000 
H      28.78300000      31.28100000      34.36600000 
H      30.18100000      32.26400000      34.08900000 
H      29.45600000      34.70800000      35.72400000 
H      29.89700000      34.93600000      33.98700000 
H      28.41300000      35.55700000      34.53000000 
N      26.32200000      33.52100000      30.24600000 
C      26.15100000      33.45500000      28.67400000 
C      25.33000000      34.76300000      28.13300000 
O      25.58800000      35.33200000      27.36100000 
C      25.48800000      32.22100000      28.18700000 
C      25.08800000      32.38700000      26.74100000 
C      26.48600000      31.05700000      28.46100000 
H      25.87200000      32.79900000      30.64300000 
H      27.05100000      33.60300000      28.20600000 
H      24.53100000      32.02600000      28.77500000 
H      24.72300000      31.29100000      26.32000000 
H      24.30600000      33.02400000      26.56000000 
H      25.94700000      32.60800000      26.14000000 
H      25.84200000      30.02400000      28.11700000 
H      27.22300000      31.08400000      27.84900000 
H      26.65600000      30.88600000      29.41200000 
N      27.42100000      37.59600000      28.59200000 
C      28.34300000      37.81600000      27.34600000 
C      27.64200000      38.19500000      25.91700000 
O      28.20300000      39.08000000      25.39800000 
C      29.06100000      36.34800000      27.15000000 
C      29.94700000      36.21300000      26.00400000 
C      30.99100000      37.09800000      26.03400000 
C      30.56700000      34.71400000      26.25300000 
H      27.33000000      37.06400000      28.88700000 
H      29.18800000      38.52600000      27.52200000 
H      29.53400000      36.18100000      28.16400000 
H      28.17700000      35.64500000      27.17800000 
H      29.39300000      36.23000000      25.16100000 
H      31.81600000      36.90300000      25.14000000 
H      30.73600000      38.20500000      25.81200000 
H      31.64900000      37.16200000      26.89700000 
H      31.14700000      34.51400000      25.25800000 
H      31.04300000      34.62100000      26.95600000 
H      29.68600000      33.96800000      26.13700000 
N      35.70600000      41.09700000      27.57000000 
C      36.84900000      40.29100000      28.17000000 
C      36.56700000      39.58400000      29.53400000 
O      36.82700000      38.74100000      29.78200000 
C      38.02000000      41.02900000      27.97700000 
C      38.59800000      41.17100000      26.63800000 
C      39.94200000      41.96600000      26.39700000 
N      40.42500000      41.93600000      25.20800000 
C      41.09900000      40.83900000      24.66400000 
N      41.45700000      39.81100000      25.44700000 
N      41.45200000      40.69400000      23.37700000 
H      35.85800000      41.98100000      27.38500000 
H      36.91200000      39.27100000      27.42900000 
H      38.00800000      41.97200000      28.54100000 
H      38.94000000      40.40700000      28.62700000 
H      38.74900000      40.21200000      26.13800000 
H      37.81900000      41.70800000      25.99600000 
H      39.71100000      43.03800000      26.67700000 
H      40.61000000      41.67400000      27.23900000 
H      40.28900000      42.59200000      24.52100000 
H      41.29800000      39.81400000      26.44200000 
H      41.85000000      39.01900000      25.06700000 
H      41.07100000      41.46000000      22.65300000 
H      41.88000000      39.89800000      23.03200000 
N      35.85000000      40.44000000      30.35600000 
C      35.38200000      40.25100000      31.72700000 
C      34.48100000      39.03100000      31.52400000 
O      34.53800000      37.92800000      32.41100000 
C      34.83300000      41.26600000      32.34700000 
O      35.90100000      42.28200000      32.65200000 
H      35.60900000      41.51400000      29.99000000 
H      36.35200000      39.68300000      32.16700000 
H      34.08200000      41.68200000      31.99400000 
H      34.64100000      40.96100000      33.41900000 
H      35.91300000      42.89800000      31.77400000 
N      33.41700000      39.18400000      30.68300000 
C      32.47500000      37.98700000      30.48100000 
C      32.82900000      36.80700000      30.17800000 
O      32.60500000      35.72500000      30.40700000 
C      31.25300000      38.60000000      29.68300000 
H      33.33000000      39.85500000      30.19100000 
H      32.08300000      37.75200000      31.55900000 
H      30.47600000      37.77200000      29.67700000 
H      30.79400000      39.42400000      30.23700000 
H      31.54700000      38.81400000      28.81500000 
N      34.03200000      36.75700000      28.97600000 
C      34.62600000      35.64400000      28.57500000 
C      35.44400000      35.17900000      29.78200000 
O      35.35900000      33.65800000      29.86000000 
C      35.40000000      35.83900000      27.36800000 
C      34.78600000      36.20900000      25.98700000 
C      36.23200000      34.58300000      26.85700000 
C      35.23600000      36.77100000      24.97200000 
H      34.20700000      37.71200000      28.65900000 
H      33.80900000      34.87500000      28.29300000 
H      36.16700000      36.72500000      27.54200000 
H      33.94700000      35.43500000      25.86200000 
H      33.79800000      37.16700000      26.50400000 
H      36.82000000      34.76000000      26.07600000 
H      37.02800000      34.37200000      27.77800000 
H      35.65000000      33.79800000      26.83400000 
H      34.70900000      37.10600000      24.14900000 
H      35.99500000      37.64600000      25.19600000 
H      36.00300000      35.99400000      24.47600000 
N      36.18600000      35.73000000      30.52500000 
C      36.72400000      35.35700000      31.54600000 
C      35.93700000      34.35500000      32.75000000 
O      36.20600000      33.61700000      33.04600000 
C      37.63700000      36.29300000      32.30600000 
C      38.59200000      35.75300000      33.62600000 
O      38.03700000      35.96600000      34.56100000 
N      39.56000000      35.17100000      33.34400000 
H      36.22600000      36.76800000      30.30300000 
H      37.58600000      34.35400000      31.23900000 
H      38.44600000      36.74000000      31.49700000 
H      37.05800000      37.11700000      32.61500000 
H      40.11100000      34.79100000      33.97400000 
H      40.00600000      35.01700000      32.24300000 
N      34.87600000      35.22200000      32.80400000 
C      33.85500000      34.60700000      33.93100000 
C      33.21700000      33.16800000      33.30300000 
O      33.07100000      32.39400000      34.05200000 
C      32.71100000      35.60100000      34.16300000 
C      33.34700000      36.73000000      35.12600000 
O      34.17000000      36.71500000      35.61400000 
N      32.37200000      37.73100000      34.94000000 
H      34.59500000      36.03400000      32.56600000 
H      34.38900000      34.28800000      34.75400000 
H      32.25900000      35.89200000      33.30000000 
H      31.99700000      35.03900000      34.79900000 
H      32.62600000      38.64200000      35.55300000 
H      31.57900000      37.84700000      34.44300000 
N      33.00800000      33.24000000      32.08400000 
C      32.55400000      31.89900000      31.39300000 
C      33.58400000      30.83400000      31.45400000 
O      33.40500000      29.84100000      31.75600000 
C      32.01500000      32.18100000      29.92500000 
C      31.37400000      31.09600000      29.33400000 
C      30.20300000      30.33100000      30.16200000 
C      30.89000000      31.43600000      27.93100000 
H      33.04500000      33.97100000      31.41700000 
H      31.70900000      31.52300000      32.09400000 
H      31.19600000      32.96500000      30.11600000 
H      32.70500000      32.59000000      29.44900000 
H      32.15400000      30.18900000      29.16000000 
H      29.71100000      29.51900000      29.47100000 
H      30.51900000      29.93700000      30.98300000 
H      29.43400000      31.07800000      30.26400000 
H      30.50900000      30.52300000      27.30800000 
H      30.07300000      32.11800000      27.98600000 
H      31.68400000      31.88100000      27.32900000 
N      34.81300000      31.08700000      31.16800000 
C      36.03900000      30.44700000      31.30700000 
C      36.04000000      29.74800000      32.41400000 
O      36.34200000      28.35200000      32.63200000 
C      37.23200000      30.94200000      30.64300000 
C      37.28900000      31.20700000      29.23100000 
C      38.56700000      30.15600000      31.17200000 
C      38.43200000      31.89300000      28.53200000 
H      35.00600000      32.23300000      30.82100000 
H      35.71900000      29.41200000      30.43200000 
H      37.32700000      31.91800000      31.16800000 
H      37.33300000      30.14700000      28.72200000 
H      36.38100000      31.61600000      28.88600000 
H      39.40400000      30.64300000      30.83800000 
H      38.59500000      30.11000000      32.23600000 
H      38.50600000      29.20500000      30.79000000 
H      38.39400000      32.20100000      27.71800000 
H      38.52500000      32.98900000      29.23100000 
H      39.45200000      31.47400000      28.82300000 
N      36.03900000      30.36700000      33.52600000 
C      36.31600000      29.81600000      35.03700000 
C      35.35800000      28.66000000      35.35100000 
O      35.55200000      27.83400000      35.88900000 
C      36.54300000      30.72200000      36.12300000 
C      37.71300000      31.57500000      35.64900000 
C      35.43100000      31.52800000      36.47500000 
H      35.93200000      31.42100000      33.55700000 
H      37.29400000      29.13300000      34.80900000 
H      36.88300000      30.11500000      36.89000000 
H      38.02600000      32.31300000      36.75100000 
H      38.56600000      31.17900000      35.45600000 
H      37.47200000      32.41300000      35.03200000 
H      35.59100000      32.22300000      37.37000000 
H      34.87600000      32.09200000      35.77100000 
H      34.49200000      30.77600000      36.99300000 
N      33.86300000      28.84100000      34.75300000 
C      33.04000000      27.96100000      35.07200000 
C      33.15500000      26.75100000      34.17400000 
O      32.86200000      25.51000000      34.60200000 
C      31.56400000      28.45000000      35.08100000 
C      31.29400000      29.40200000      36.05600000 
C      31.35300000      29.09900000      37.33100000 
O      31.19000000      27.60500000      37.68300000 
O      31.46600000      29.78600000      38.39400000 
H      33.82600000      29.69300000      34.24200000 
H      33.08800000      27.54100000      35.99500000 
H      31.48100000      29.07200000      33.84800000 
H      30.87000000      27.74300000      34.91500000 
H      31.98400000      30.44600000      35.99800000 
H      30.22900000      29.90800000      35.91200000 
N      33.58800000      26.81500000      32.80700000 
C      33.89200000      25.82100000      32.00600000 
C      34.96700000      24.88800000      32.53400000 
O      34.98200000      23.57100000      32.41800000 
C      34.01500000      26.20400000      30.66800000 
C      32.76300000      26.78700000      29.90800000 
C      33.11800000      27.33900000      28.54400000 
C      31.41400000      26.13600000      30.07200000 
H      33.75900000      27.79900000      32.55000000 
H      32.92500000      24.98200000      32.13300000 
H      34.86500000      26.72800000      30.48800000 
H      34.18500000      25.17100000      29.95100000 
H      32.66600000      27.84000000      30.55900000 
H      32.31400000      27.82600000      28.10600000 
H      34.00400000      27.76800000      28.44200000 
H      33.18800000      26.26700000      27.89100000 
H      30.72600000      26.59000000      29.61200000 
H      31.59200000      25.06400000      29.57500000 
H      31.18700000      25.90200000      31.13500000 
N      36.15500000      25.73400000      33.06200000 
C      37.18800000      24.73500000      33.66600000 
C      36.67600000      23.92700000      34.74800000 
O      37.20400000      22.73100000      34.89200000 
C      38.29800000      25.76700000      34.03800000 
C      38.95600000      26.41700000      32.95400000 
C      39.16300000      24.98700000      35.22900000 
C      39.83600000      27.59800000      33.31400000 
H      36.09100000      26.43300000      33.02800000 
H      37.64200000      24.12800000      32.85600000 
H      37.77900000      26.60600000      34.63300000 
H      39.66900000      25.55800000      32.44000000 
H      38.38300000      26.68500000      32.16600000 
H      40.06700000      25.86400000      35.40700000 
H      38.80100000      24.84400000      35.91400000 
H      39.74000000      24.31300000      34.66800000 
H      40.43600000      28.03000000      32.32100000 
H      39.40900000      28.28900000      33.73300000 
H      40.80800000      27.24900000      33.99500000 
N      35.82400000      24.31700000      35.56600000 
C      35.37900000      23.67800000      36.73300000 
C      34.11900000      22.50200000      36.10000000 
O      33.84400000      21.74600000      37.26600000 
C      34.62300000      24.58900000      37.72500000 
C      35.57100000      25.66400000      38.21100000 
C      34.89300000      26.80400000      38.98700000 
N      35.90000000      27.72700000      39.47800000 
C      36.75400000      27.70900000      40.67100000 
N      36.56400000      26.72200000      41.41700000 
N      37.63200000      28.59600000      40.81700000 
H      35.46000000      25.31800000      35.38700000 
H      36.01600000      23.17100000      37.19500000 
H      33.83300000      25.22800000      37.12400000 
H      34.05000000      24.06800000      38.45200000 
H      36.29400000      24.90100000      39.14800000 
H      36.23200000      25.94100000      37.66200000 
H      34.32200000      27.18200000      38.46000000 
H      34.33000000      26.37800000      39.94600000 
H      36.05900000      28.45700000      38.91200000 
H      35.82700000      25.98800000      41.34900000 
H      37.07800000      26.55500000      42.35500000 
H      37.76500000      29.33600000      40.14300000 
H      38.17700000      28.61900000      41.58900000 
N      33.94100000      22.52700000      35.20100000 
C      32.90800000      21.42900000      34.57200000 
C      31.28800000      21.74200000      34.92700000 
O      30.66300000      21.10400000      34.81500000 
H      34.22300000      23.13500000      34.37200000 
H      32.94200000      21.42800000      33.54400000 
H      33.07000000      20.56200000      35.03100000 
N      31.09800000      23.22500000      35.30900000 
C      29.84100000      23.46900000      35.72400000 
C      28.94600000      23.44900000      34.34100000 
O      29.38300000      23.90900000      33.25800000 
C      29.80400000      24.94800000      36.04400000 
O      30.77300000      25.11100000      37.29100000 
C      28.41400000      25.30100000      36.58300000 
H      31.90300000      23.82400000      35.29200000 
H      29.44800000      22.89000000      36.34900000 
H      30.09300000      25.58900000      35.40700000 
H      30.93300000      25.87800000      37.43700000 
H      28.47400000      26.38000000      37.13300000 
H      27.71000000      25.42900000      35.88600000 
H      28.05200000      24.66700000      37.41200000 
N      27.64500000      22.76600000      34.58200000 
C      26.88400000      22.83800000      33.33500000 
C      27.15100000      21.66000000      32.41300000 
O      26.42800000      21.80900000      31.28300000 
H      27.52100000      22.48600000      35.32400000 
H      25.81700000      22.60200000      33.82400000 
H      26.78100000      23.74600000      32.90400000 
N      27.90500000      20.85400000      32.68000000 
C      28.23900000      19.65700000      31.75100000 
C      27.39800000      18.37700000      32.42200000 
O      27.50800000      18.11000000      33.47600000 
C      29.60400000      19.38200000      31.67900000 
O      30.28100000      20.39500000      31.10100000 
H      28.43700000      20.79900000      33.50700000 
H      27.83600000      19.86500000      30.79500000 
H      30.09700000      19.11700000      32.72500000 
H      29.81400000      18.38200000      31.08800000 
H      31.28100000      20.25800000      30.90800000 
H      33.07853805      24.79454477      21.90121862 
H      37.48490420      25.83165583      23.49671262 
H      35.62752299      30.35429442      22.92268708 
H      40.33291982      31.07476218      22.08359319 
H      39.08100923      35.51173701      23.15257827 
H      41.97621935      36.61121281      22.03042605 
H      30.26867477      32.30854817      18.99810158 
H      26.62098842      32.26399590      19.72427090 
H      27.87404938      20.13359793      27.60610348 
H      25.09179322      22.78200815      28.42231892 
H      21.01295224      25.51575981      32.22685218 
H      21.89868224      26.92355838      35.65629212 
H      23.45329345      28.54534664      37.53605663 
H      23.89183895      30.26161693      32.53659464 
H      25.55621873      34.75670715      33.55951038 
H      24.48870768      35.04994123      28.59113968 
H      27.70436205      38.11467424      29.27073631 
H      26.84091425      37.68577895      25.60242802 
H      35.46009642      40.73135531      26.78524820 
H      26.77664074      17.83531706      31.85587964 
