127
Properties=species:S:1:pos:R:3 pbc="F F F"
N      57.86400000      48.27300000      66.85400000 
C      57.92500000      48.32400000      65.41100000 
C      59.04200000      49.19800000      64.89600000 
O      59.47500000      50.16100000      65.55100000 
C      56.55400000      48.73900000      64.78500000 
C      56.04200000      50.12100000      65.00900000 
C      56.06800000      51.13900000      64.08400000 
C      55.25100000      50.63100000      66.11900000 
N      55.36600000      52.21600000      64.54900000 
C      54.85600000      51.93600000      65.77600000 
C      54.84400000      50.10400000      67.34200000 
C      54.04400000      52.71100000      66.63500000 
C      54.06400000      50.85900000      68.19000000 
C      53.67300000      52.16200000      67.82300000 
H      57.98100000      49.08700000      67.38400000 
H      58.10600000      47.31200000      65.07800000 
H      56.62200000      48.54600000      63.73800000 
H      55.84300000      48.03200000      65.17200000 
H      56.53800000      51.14600000      63.13100000 
H      55.20000000      53.04500000      64.02400000 
H      55.13400000      49.10900000      67.63700000 
H      53.75300000      53.69800000      66.34400000 
H      53.74000000      50.46200000      69.12200000 
H      53.05700000      52.72500000      68.49500000 
N      59.47100000      48.87000000      63.67100000 
C      60.34800000      49.64000000      62.85100000 
C      59.54100000      50.62200000      61.99600000 
O      58.36100000      50.42400000      61.73000000 
C      61.12200000      48.71900000      61.89000000 
C      61.86300000      47.59700000      62.61700000 
O      61.52500000      46.41400000      62.36100000 
O      62.77600000      47.95000000      63.43000000 
H      59.03600000      48.08200000      63.23900000 
H      61.05100000      50.18600000      63.47100000 
H      60.43900000      48.28100000      61.17600000 
H      61.85000000      49.31100000      61.34000000 
N      55.43800000      52.40000000      57.44200000 
C      55.82100000      51.51000000      58.53600000 
C      56.10300000      50.13300000      57.93900000 
O      55.30800000      49.67600000      57.11300000 
C      54.63000000      51.40600000      59.54900000 
C      54.79200000      50.21700000      60.52300000 
C      54.46900000      52.71300000      60.33200000 
H      54.74600000      51.99700000      56.80900000 
H      56.68500000      51.91000000      59.01600000 
H      53.73400000      51.24400000      58.95100000 
H      53.99500000      50.24100000      61.24800000 
H      54.71900000      49.27100000      59.99800000 
H      55.74000000      50.25100000      61.03100000 
H      53.62600000      52.64800000      60.99000000 
H      55.34800000      52.92000000      60.92500000 
H      54.31000000      53.55500000      59.67400000 
N      57.16900000      49.47000000      58.36200000 
C      57.49300000      48.10700000      57.89900000 
C      57.76000000      47.23200000      59.11900000 
O      58.73200000      47.50500000      59.85400000 
C      58.71100000      48.11300000      56.96400000 
C      59.16700000      46.70800000      56.53500000 
C      58.98200000      46.38400000      55.03300000 
N      60.27500000      46.07700000      54.40000000 
C      60.62200000      44.94700000      53.75000000 
N      61.87900000      44.81600000      53.36200000 
N      59.76200000      43.97600000      53.51400000 
H      57.78000000      49.87600000      59.02400000 
H      56.62400000      47.74700000      57.35800000 
H      58.47000000      48.71900000      56.11800000 
H      59.52400000      48.62200000      57.48600000 
H      60.22200000      46.58800000      56.76700000 
H      58.66400000      45.94500000      57.09600000 
H      58.30800000      45.56000000      54.91200000 
H      58.55400000      47.22500000      54.50000000 
H      60.96800000      46.76400000      54.48900000 
H      62.57800000      45.50500000      53.56400000 
H      62.18600000      44.02000000      52.85100000 
H      58.80600000      44.03100000      53.73100000 
H      60.07000000      43.13400000      53.06000000 
N      56.94800000      46.18000000      59.27700000 
C      57.00200000      45.19400000      60.34600000 
C      56.35300000      45.72500000      61.61200000 
O      56.32200000      46.94100000      61.88000000 
C      58.41200000      44.67700000      60.71500000 
C      59.12000000      44.03900000      59.55800000 
O      58.53000000      43.50200000      58.62200000 
N      60.47100000      44.06800000      59.61500000 
H      56.20000000      46.07600000      58.64100000 
H      56.43500000      44.36100000      59.97700000 
H      58.99700000      45.45000000      61.15800000 
H      58.27800000      43.90000000      61.45700000 
H      61.00600000      43.63100000      58.92700000 
H      60.95900000      44.54100000      60.37500000 
N      55.84300000      44.78400000      62.40300000 
C      55.19900000      45.07500000      63.68900000 
C      55.26700000      43.77300000      64.46600000 
O      54.65100000      42.78200000      64.06600000 
C      53.77500000      45.60700000      63.43900000 
C      52.87600000      45.85900000      64.65700000 
C      53.54000000      46.69200000      65.75600000 
C      51.59800000      46.59200000      64.20300000 
H      55.77800000      43.84400000      62.07900000 
H      55.80900000      45.83400000      64.19800000 
H      53.90000000      46.53000000      62.89600000 
H      53.29100000      44.89800000      62.78200000 
H      52.58700000      44.88600000      65.07400000 
H      52.83600000      46.81300000      66.58700000 
H      54.42700000      46.21400000      66.17700000 
H      53.80000000      47.66400000      65.39600000 
H      50.92500000      46.71700000      65.04300000 
H      51.85800000      47.57500000      63.83500000 
H      51.08200000      46.06500000      63.42900000 
N      56.07100000      39.85900000      61.38700000 
C      56.06600000      40.46700000      60.05900000 
C      54.64800000      40.57800000      59.53000000 
O      54.38000000      40.36000000      58.31700000 
C      57.01600000      39.77000000      59.10500000 
C      58.47000000      39.80100000      59.58100000 
O      58.76800000      40.47600000      60.58900000 
O      59.29600000      39.13800000      58.88300000 
H      56.73700000      40.23800000      62.01800000 
H      56.41700000      41.48000000      60.20700000 
H      56.72900000      38.74100000      58.95600000 
H      56.97700000      40.24500000      58.12300000 
H      57.05780220      47.96552193      67.10993425 
H      59.97576703      51.44908152      61.63975039 
H      55.08445973      53.15579445      57.77931888 
H      55.81151182      43.71805731      65.30295172 
H      55.26327647      39.96576662      61.76933963 
H      53.90224623      40.82864854      60.14727354 
