558
Properties=species:S:1:pos:R:3 pbc="F F F"
N      42.64100000      46.26600000      70.33500000 
C      42.87300000      45.16300000      71.30700000 
C      41.78200000      45.26000000      72.38400000 
O      41.68800000      46.27200000      73.08900000 
C      44.25100000      45.29500000      71.97100000 
C      45.43900000      45.14400000      70.98800000 
C      46.77000000      45.47800000      71.69900000 
C      45.51500000      43.73000000      70.38700000 
H      42.62400000      47.18000000      70.67600000 
H      42.77500000      44.24700000      70.77800000 
H      44.31400000      46.23400000      72.46700000 
H      44.32700000      44.50900000      72.73700000 
H      45.31000000      45.85900000      70.19100000 
H      47.58700000      45.41500000      70.99700000 
H      46.75600000      46.46600000      72.12500000 
H      46.96800000      44.76100000      72.50500000 
H      46.36900000      43.64500000      69.72900000 
H      45.61100000      42.98200000      71.17300000 
H      44.62700000      43.51400000      69.81000000 
N      40.02100000      43.13000000      75.67700000 
C      40.24600000      42.08100000      76.68500000 
C      39.02300000      41.94100000      77.58700000 
O      38.65300000      42.92000000      78.28700000 
C      41.50600000      42.43800000      77.48900000 
C      41.87000000      41.51600000      78.61000000 
N      42.41900000      42.04000000      79.76800000 
C      41.81700000      40.15900000      78.71300000 
C      42.70100000      41.02700000      80.56000000 
N      42.35600000      39.87000000      79.97100000 
H      39.96400000      44.07900000      76.02600000 
H      40.38800000      41.15900000      76.13300000 
H      42.30900000      42.51200000      76.78400000 
H      41.36000000      43.42400000      77.90100000 
H      41.48700000      39.40900000      78.06700000 
H      43.13500000      41.06800000      81.50200000 
H      42.46200000      38.95900000      80.35000000 
N      47.89200000      40.11700000      81.74000000 
C      48.75400000      39.92600000      80.59400000 
C      49.70600000      41.08600000      80.41300000 
O      49.36000000      42.24200000      80.76900000 
C      47.92800000      39.75800000      79.30100000 
H      47.42500000      40.99400000      81.79100000 
H      49.34500000      39.01800000      80.75600000 
H      48.57300000      39.73900000      78.43000000 
H      47.40100000      38.82100000      79.33800000 
H      47.23100000      40.55700000      79.22000000 
N      50.85000000      40.80900000      79.79500000 
C      51.79800000      41.81400000      79.33500000 
C      51.77200000      41.83700000      77.81900000 
O      51.98700000      40.78300000      77.15100000 
C      53.23000000      41.52900000      79.81200000 
C      53.41600000      41.86000000      81.27800000 
C      54.80700000      41.57200000      81.78800000 
O      55.65800000      40.96800000      81.10400000 
N      55.07400000      42.01500000      83.02600000 
H      51.01600000      39.86500000      79.51200000 
H      51.46400000      42.77000000      79.70700000 
H      53.45200000      40.48000000      79.62400000 
H      53.91400000      42.11300000      79.21600000 
H      53.21000000      42.91600000      81.44500000 
H      52.70800000      41.31200000      81.89800000 
H      54.40300000      42.49100000      83.56600000 
H      55.96600000      41.83800000      83.42600000 
N      51.48900000      43.00000000      77.22900000 
C      51.47400000      43.20300000      75.79800000 
C      52.77600000      43.89100000      75.38600000 
O      53.14200000      44.92500000      75.97200000 
C      50.31700000      44.10400000      75.37500000 
C      48.90300000      43.61300000      75.63200000 
C      48.59800000      42.34600000      76.11300000 
C      47.85300000      44.48000000      75.36100000 
C      47.26300000      41.96600000      76.34300000 
C      46.53000000      44.13600000      75.56100000 
C      46.25000000      42.86900000      76.07700000 
O      44.92300000      42.58600000      76.29700000 
H      51.31300000      43.78900000      77.81000000 
H      51.40700000      42.23300000      75.32300000 
H      50.44000000      45.07800000      75.84400000 
H      50.43000000      44.27400000      74.28900000 
H      49.35300000      41.62900000      76.32300000 
H      48.07600000      45.48000000      74.98800000 
H      47.03600000      40.99900000      76.72500000 
H      45.73600000      44.80100000      75.34400000 
H      44.77700000      41.81800000      76.87600000 
N      53.44000000      43.35100000      74.36300000 
C      54.66300000      43.93800000      73.81500000 
C      54.33900000      44.31100000      72.35900000 
O      53.98100000      43.42100000      71.57000000 
C      55.82600000      42.93500000      73.80500000 
C      56.29200000      42.54100000      75.20100000 
C      55.54200000      41.66700000      75.98300000 
C      57.46400000      43.07400000      75.74400000 
C      55.92600000      41.37200000      77.28000000 
C      57.85000000      42.78100000      77.03800000 
C      57.04900000      41.93700000      77.82600000 
O      57.43700000      41.72900000      79.11900000 
H      53.14500000      42.48300000      73.98600000 
H      54.91700000      44.81500000      74.38600000 
H      55.53400000      42.06800000      73.25600000 
H      56.65700000      43.38800000      73.27600000 
H      54.65500000      41.20900000      75.57500000 
H      58.06500000      43.72800000      75.15600000 
H      55.32200000      40.69500000      77.86600000 
H      58.74100000      43.19600000      77.46000000 
H      56.74600000      41.42600000      79.71600000 
N      54.44200000      45.59400000      72.01100000 
C      54.11500000      46.10300000      70.68000000 
C      55.29000000      46.99000000      70.24500000 
O      55.44600000      48.11900000      70.82700000 
C      52.75000000      46.85700000      70.69400000 
C      51.60500000      45.94500000      71.18300000 
C      52.43500000      47.41700000      69.31800000 
C      50.90800000      46.48100000      72.43600000 
H      54.71500000      46.26400000      72.70000000 
H      54.04900000      45.25400000      70.01800000 
H      52.87300000      47.68500000      71.39800000 
H      50.87200000      45.85800000      70.38600000 
H      51.95600000      44.93600000      71.37000000 
H      51.48400000      47.98000000      69.36000000 
H      53.19400000      48.09900000      68.93600000 
H      52.29600000      46.61400000      68.60100000 
H      50.03400000      45.88500000      72.68300000 
H      51.57900000      46.47300000      73.28500000 
H      50.57400000      47.51300000      72.28000000 
N      56.08800000      46.52200000      69.33600000 
C      57.38600000      47.09800000      68.99100000 
C      57.52600000      47.11900000      67.47200000 
O      57.34600000      46.04800000      66.84700000 
C      58.52200000      46.28700000      69.63800000 
O      58.30900000      46.41800000      71.07000000 
C      59.91100000      46.73400000      69.26500000 
H      55.89900000      45.60000000      68.92700000 
H      57.41800000      48.10600000      69.39000000 
H      58.37200000      45.24000000      69.36200000 
H      58.67700000      45.70700000      71.55800000 
H      60.63700000      46.17800000      69.83300000 
H      60.12200000      46.57300000      68.20600000 
H      60.04300000      47.78600000      69.49100000 
N      56.06700000      51.15700000      71.72200000 
C      54.92000000      51.82700000      72.31500000 
C      55.21200000      52.22800000      73.77100000 
O      56.16400000      51.76000000      74.39600000 
C      53.67100000      50.90200000      72.23600000 
C      52.36900000      51.64600000      72.29200000 
C      52.02100000      52.78900000      71.65300000 
C      51.17100000      51.23700000      73.01800000 
N      50.72600000      53.13000000      71.93100000 
C      50.18600000      52.18500000      72.77800000 
C      50.85800000      50.13600000      73.84200000 
C      48.91100000      52.10500000      73.33500000 
C      49.63400000      50.05000000      74.37600000 
C      48.64000000      51.02200000      74.14600000 
H      55.98500000      50.18700000      71.53300000 
H      54.73800000      52.74700000      71.75100000 
H      53.75400000      50.34200000      71.33200000 
H      53.72700000      50.18700000      73.06300000 
H      52.61400000      53.41100000      70.99900000 
H      50.25200000      53.94200000      71.58800000 
H      51.61400000      49.36800000      74.03800000 
H      48.16900000      52.83900000      73.13200000 
H      49.36800000      49.20100000      75.02900000 
H      47.67000000      50.92700000      74.58800000 
N      54.35400000      53.09100000      74.34700000 
C      54.53100000      53.56500000      75.70000000 
C      54.21400000      52.53800000      76.75500000 
O      54.63400000      52.71400000      77.92500000 
C      53.79700000      54.88200000      75.94800000 
C      52.27900000      54.87900000      75.91900000 
O      51.67200000      53.82200000      76.32300000 
O      51.70200000      55.93900000      75.55700000 
H      53.59100000      53.45300000      73.79900000 
H      55.58600000      53.76500000      75.83400000 
H      54.08400000      55.23900000      76.94100000 
H      54.15400000      55.63100000      75.24400000 
N      53.52500000      51.43300000      76.40000000 
C      53.13400000      50.39200000      77.33800000 
C      53.75100000      49.09700000      76.80700000 
O      53.06900000      48.23500000      76.20400000 
C      51.60200000      50.31000000      77.51200000 
C      51.18700000      50.40300000      78.99500000 
C      51.36700000      51.80000000      79.59800000 
N      50.45900000      52.80000000      78.99800000 
C      49.35900000      53.26700000      79.54900000 
N      49.06800000      53.08500000      80.83900000 
N      48.50200000      53.96300000      78.80700000 
H      53.10000000      51.44400000      75.50200000 
H      53.61400000      50.61700000      78.26700000 
H      51.14700000      51.09900000      76.94200000 
H      51.24600000      49.38700000      77.10400000 
H      50.12300000      50.14200000      79.07000000 
H      51.73400000      49.70200000      79.57500000 
H      51.22700000      51.75500000      80.65000000 
H      52.38100000      52.16600000      79.43200000 
H      50.69400000      53.11600000      78.07900000 
H      49.69600000      52.69500000      81.47700000 
H      48.19000000      53.40300000      81.21600000 
H      48.61800000      54.03100000      77.81300000 
H      47.70600000      54.42700000      79.20000000 
N      55.06200000      48.97200000      77.00100000 
C      55.82600000      47.83300000      76.49500000 
C      56.07200000      46.84000000      77.61300000 
O      57.17300000      46.72700000      78.15400000 
C      57.12700000      48.31300000      75.82900000 
C      57.79200000      47.19500000      75.04800000 
O      57.10500000      46.33200000      74.48600000 
N      59.11000000      47.23500000      74.95800000 
H      55.56400000      49.66000000      77.50700000 
H      55.21700000      47.34500000      75.71300000 
H      56.90600000      49.09800000      75.16100000 
H      57.80300000      48.68800000      76.58300000 
H      59.58900000      46.53700000      74.40500000 
H      59.67000000      47.90700000      75.40300000 
N      55.01400000      46.15000000      78.00600000 
C      54.98800000      45.17900000      79.07200000 
C      54.60900000      45.79800000      80.40800000 
O      55.44600000      46.41500000      81.11000000 
H      54.16100000      46.15700000      77.41500000 
H      54.32700000      44.39400000      78.82200000 
H      55.98700000      44.75900000      79.18300000 
N      53.33100000      45.64100000      80.77900000 
C      52.76500000      46.13300000      82.02900000 
C      51.54100000      45.25900000      82.27600000 
O      50.78200000      45.06500000      81.29200000 
C      52.37400000      47.59200000      81.91900000 
C      51.87600000      48.26100000      83.21900000 
C      53.00500000      48.45900000      84.20600000 
O      53.26100000      47.63200000      85.10200000 
N      53.74900000      49.57300000      84.02400000 
H      52.69500000      45.21300000      80.15200000 
H      53.51600000      45.99100000      82.82800000 
H      53.20800000      48.15500000      81.52000000 
H      51.57500000      47.67100000      81.17200000 
H      51.41700000      49.19500000      82.99300000 
H      51.14100000      47.63300000      83.70000000 
H      53.56100000      50.22400000      83.32000000 
H      54.52000000      49.73700000      84.62900000 
N      51.31000000      44.73000000      83.48100000 
C      50.18600000      43.85000000      83.70100000 
C      48.85200000      44.62700000      83.68000000 
O      48.69400000      45.65400000      84.35800000 
C      50.33200000      43.05800000      84.99300000 
C      50.61000000      43.90100000      86.24400000 
O      49.79500000      43.81200000      87.19800000 
O      51.65400000      44.60100000      86.22300000 
H      51.85900000      44.94000000      84.27700000 
H      50.14600000      43.14300000      82.87500000 
H      49.44600000      42.45900000      85.15700000 
H      51.16300000      42.37600000      84.86600000 
N      47.89100000      44.07800000      82.91300000 
C      46.58900000      44.70900000      82.66100000 
C      45.49900000      43.72800000      83.02500000 
O      45.41500000      42.65300000      82.43100000 
C      46.47000000      45.08300000      81.16500000 
C      47.64200000      45.88900000      80.60100000 
C      47.68500000      45.77400000      79.06700000 
C      47.61400000      47.37000000      81.03500000 
H      48.14200000      43.32900000      82.30400000 
H      46.53800000      45.60000000      83.26800000 
H      46.38100000      44.14600000      80.61000000 
H      45.52100000      45.61200000      81.01400000 
H      48.55300000      45.44900000      80.96400000 
H      48.51600000      46.33000000      78.66300000 
H      47.80400000      44.73500000      78.76600000 
H      46.77700000      46.14600000      78.61200000 
H      48.49600000      47.87000000      80.66500000 
H      46.74200000      47.87100000      80.65400000 
H      47.62500000      47.45100000      82.12100000 
N      39.88900000      46.08500000      79.60400000 
C      40.89000000      46.91200000      78.95200000 
C      40.58600000      46.90600000      77.43200000 
O      40.36300000      45.85100000      76.84100000 
C      42.29500000      46.31700000      79.23200000 
C      43.41100000      47.07000000      78.56100000 
C      43.94800000      48.21300000      79.09500000 
C      43.92100000      46.60900000      77.31900000 
C      44.97100000      48.92000000      78.46300000 
C      44.93700000      47.29400000      76.66800000 
C      45.47200000      48.45200000      77.25100000 
H      39.64200000      45.20500000      79.18100000 
H      40.81500000      47.90700000      79.33700000 
H      42.42100000      46.36800000      80.31200000 
H      42.30400000      45.27300000      78.94700000 
H      43.56900000      48.58600000      80.05300000 
H      43.52500000      45.69900000      76.89200000 
H      45.38300000      49.79700000      78.90600000 
H      45.30200000      46.94800000      75.74400000 
H      46.26600000      48.97300000      76.75300000 
N      42.15000000      49.22800000      73.91000000 
C      43.04400000      50.24100000      73.38900000 
C      43.15000000      50.12300000      71.87600000 
O      42.60700000      49.19200000      71.27500000 
C      44.44100000      50.19500000      74.07400000 
O      45.11000000      51.45400000      73.83300000 
C      45.33500000      49.09800000      73.53900000 
H      42.02000000      48.39600000      73.38200000 
H      42.61300000      51.22900000      73.62800000 
H      44.26500000      50.06200000      75.12500000 
H      44.77000000      52.15500000      74.39500000 
H      46.21200000      49.00700000      74.14600000 
H      44.81800000      48.14300000      73.55500000 
H      45.64600000      49.29500000      72.53100000 
N      56.09400000      43.75700000      65.54700000 
C      56.23300000      42.53800000      66.34600000 
C      55.31700000      42.66500000      67.55600000 
O      55.45100000      43.62700000      68.36700000 
C      57.68300000      42.34500000      66.80600000 
O      58.39100000      41.86600000      65.66200000 
H      56.54600000      44.57600000      65.84900000 
H      55.94700000      41.68700000      65.75600000 
H      58.10500000      43.26000000      67.17100000 
H      57.70000000      41.60400000      67.60200000 
H      59.29400000      41.58600000      65.88500000 
N      54.39900000      41.74300000      67.69300000 
C      53.38400000      41.70500000      68.74300000 
C      53.55300000      40.38900000      69.48000000 
O      53.50900000      39.29600000      68.85600000 
C      51.96800000      41.86600000      68.17600000 
C      50.89400000      41.73100000      69.28700000 
C      51.84100000      43.22100000      67.48000000 
H      54.33900000      41.00000000      67.00700000 
H      53.60300000      42.50700000      69.41800000 
H      51.80200000      41.07100000      67.44300000 
H      49.92400000      41.97100000      68.87900000 
H      50.85200000      40.72500000      69.67300000 
H      51.10100000      42.41200000      70.10100000 
H      50.83400000      43.35600000      67.09100000 
H      52.04900000      44.03300000      68.16000000 
H      52.52300000      43.29000000      66.64100000 
N      53.73300000      40.45300000      70.80400000 
C      53.83200000      39.30400000      71.68700000 
C      52.82100000      39.54300000      72.77200000 
O      52.93400000      40.51400000      73.55900000 
C      55.26800000      39.18400000      72.21000000 
C      55.49700000      38.24800000      73.40500000 
C      56.97200000      38.26800000      73.84500000 
C      57.10800000      37.63100000      75.23200000 
N      58.55000000      37.68500000      75.72100000 
H      53.81300000      41.36600000      71.21000000 
H      53.57200000      38.42700000      71.11700000 
H      55.89200000      38.85700000      71.37100000 
H      55.62500000      40.17200000      72.48100000 
H      54.87100000      38.57100000      74.23600000 
H      55.19300000      37.22600000      73.15400000 
H      57.58300000      37.73300000      73.12700000 
H      57.32000000      39.28800000      73.89000000 
H      56.53400000      38.16500000      75.95600000 
H      56.85000000      36.58500000      75.23100000 
H      58.64700000      37.23700000      76.58800000 
H      59.19000000      37.28300000      75.06800000 
H      58.84400000      38.66700000      75.86400000 
N      51.76800000      38.71400000      72.82200000 
C      50.72400000      38.81100000      73.84600000 
C      50.86900000      37.52500000      74.68000000 
O      50.62100000      36.41400000      74.21700000 
C      49.32000000      38.96900000      73.20200000 
C      49.22600000      40.41300000      72.64200000 
C      48.20100000      38.69700000      74.23200000 
C      47.96500000      40.68100000      71.79300000 
H      51.67300000      37.98900000      72.13400000 
H      50.92800000      39.64700000      74.44300000 
H      49.21900000      38.26000000      72.39200000 
H      49.29200000      41.11300000      73.44000000 
H      50.09300000      40.57200000      71.99000000 
H      47.23100000      38.88700000      73.79400000 
H      48.22200000      37.67300000      74.56700000 
H      48.30900000      39.34800000      75.09900000 
H      48.04400000      41.64800000      71.32000000 
H      47.81800000      39.92700000      71.03100000 
H      47.07400000      40.70600000      72.42800000 
N      51.35100000      37.73300000      75.92700000 
C      51.61900000      36.62600000      76.83200000 
C      50.79300000      36.79000000      78.10200000 
O      50.52800000      37.90200000      78.57400000 
C      53.11100000      36.43600000      77.15200000 
C      53.81100000      37.57200000      77.91300000 
C      55.17000000      37.02600000      78.38300000 
N      55.90800000      38.00600000      79.19800000 
C      57.10600000      37.77000000      79.68200000 
N      57.83000000      36.70900000      79.33700000 
N      57.65500000      38.64500000      80.55900000 
H      51.50500000      38.65500000      76.24800000 
H      51.29100000      35.74300000      76.33800000 
H      53.18000000      35.52700000      77.74100000 
H      53.62000000      36.24100000      76.21500000 
H      53.97900000      38.43000000      77.24500000 
H      53.25100000      37.89600000      78.74300000 
H      54.99500000      36.15100000      78.98300000 
H      55.76100000      36.73600000      77.54500000 
H      55.42100000      38.82200000      79.51200000 
H      57.44400000      36.02400000      78.70700000 
H      58.69300000      36.51200000      79.74000000 
H      57.12400000      39.42300000      80.89700000 
H      58.55600000      38.50900000      80.91300000 
N      50.40600000      35.63600000      78.63800000 
C      49.48400000      35.54100000      79.76000000 
C      50.20900000      35.11500000      81.02000000 
O      51.01200000      34.15600000      81.00000000 
C      48.40700000      34.49100000      79.38700000 
C      47.43700000      34.15700000      80.50400000 
C      46.30400000      33.21100000      80.08800000 
O      46.11800000      33.00100000      78.83200000 
O      45.62700000      32.71700000      81.00900000 
H      50.70000000      34.78300000      78.22900000 
H      49.02600000      36.50300000      79.91500000 
H      47.87500000      34.89400000      78.53600000 
H      48.90900000      33.60000000      79.05500000 
H      47.92800000      33.68500000      81.32900000 
H      46.96700000      35.04300000      80.88400000 
N      54.92900000      32.40400000      82.80900000 
C      54.37000000      33.05700000      81.63700000 
C      54.08200000      32.01000000      80.56700000 
O      54.85900000      31.04200000      80.40200000 
C      55.38500000      34.08100000      81.03300000 
C      55.61600000      35.26400000      81.94400000 
C      56.65600000      35.51200000      82.73300000 
C      54.70100000      36.37000000      82.13600000 
N      56.49100000      36.67800000      83.43700000 
C      55.27700000      37.20200000      83.07800000 
C      53.46000000      36.71200000      81.54100000 
C      54.63200000      38.39700000      83.53800000 
C      52.84100000      37.90400000      81.95600000 
C      53.42100000      38.69100000      82.95300000 
H      55.72600000      31.83500000      82.64500000 
H      53.47800000      33.55700000      81.91100000 
H      56.32600000      33.57300000      80.86700000 
H      55.01200000      34.39800000      80.08500000 
H      57.55300000      34.92400000      82.87100000 
H      57.13200000      37.08000000      84.05800000 
H      53.01800000      36.10900000      80.81500000 
H      55.07200000      38.99800000      84.27600000 
H      51.91900000      38.17600000      81.52200000 
H      52.89200000      39.56600000      83.29100000 
N      53.14300000      32.04400000      76.35800000 
C      52.92200000      32.77900000      75.14300000 
C      51.62000000      32.29700000      74.50000000 
O      51.47600000      31.07500000      74.29900000 
C      54.09000000      32.56600000      74.15400000 
O      55.26100000      32.26500000      74.92600000 
C      54.30800000      33.78400000      73.27500000 
H      53.90900000      31.39500000      76.37700000 
H      52.84700000      33.84800000      75.38900000 
H      53.85100000      31.69600000      73.53600000 
H      55.96300000      31.89900000      74.37700000 
H      55.05000000      33.57500000      72.50900000 
H      53.39000000      34.10100000      72.78400000 
H      54.67200000      34.60200000      73.88900000 
N      50.69200000      33.20200000      74.18800000 
C      49.41100000      32.77100000      73.61800000 
C      49.32300000      33.09000000      72.13800000 
O      49.09100000      32.22200000      71.32300000 
C      48.18100000      33.31100000      74.38000000 
C      46.91200000      32.61000000      73.85700000 
C      48.31800000      33.10000000      75.89200000 
H      50.82700000      34.16100000      74.39400000 
H      49.39500000      31.68800000      73.67400000 
H      48.08900000      34.39000000      74.19800000 
H      46.03600000      33.03400000      74.32300000 
H      46.79900000      32.72700000      72.76900000 
H      46.95100000      31.55200000      74.07500000 
H      47.40100000      33.34900000      76.38400000 
H      48.52800000      32.03400000      76.10100000 
H      49.10500000      33.67500000      76.30100000 
N      49.47000000      34.40400000      71.79300000 
C      49.26700000      34.82400000      70.42300000 
C      50.52500000      35.58600000      69.97100000 
O      50.86800000      36.60600000      70.55800000 
C      47.96000000      35.64600000      70.26800000 
C      47.43800000      35.59900000      68.84600000 
C      47.48500000      36.70000000      67.98000000 
C      46.84500000      34.41900000      68.35700000 
C      46.98200000      36.60900000      66.70100000 
C      46.36300000      34.33800000      67.10400000 
C      46.42200000      35.41400000      66.24800000 
O      45.93600000      35.27600000      64.96600000 
H      49.67400000      35.09400000      72.47900000 
H      49.16700000      33.93000000      69.83400000 
H      47.24800000      35.22500000      70.92900000 
H      48.13400000      36.67200000      70.57700000 
H      47.91300000      37.60500000      68.31600000 
H      46.77800000      33.56900000      69.03000000 
H      47.02000000      37.46600000      66.03900000 
H      45.89900000      33.41000000      66.73300000 
H      45.70900000      36.10500000      64.50200000 
N      51.17000000      35.04000000      68.97500000 
C      52.45200000      35.54600000      68.46100000 
C      52.41800000      35.41400000      66.93600000 
O      52.23000000      34.29400000      66.42600000 
C      53.61500000      34.75700000      69.03900000 
C      54.99700000      35.22700000      68.60200000 
C      56.14900000      34.47900000      69.19900000 
O      55.95900000      33.37400000      69.74200000 
O      57.31700000      35.03600000      69.07700000 
H      50.85900000      34.17400000      68.57000000 
H      52.52000000      36.59700000      68.74800000 
H      53.54900000      34.83100000      70.13700000 
H      53.49100000      33.70700000      68.80400000 
H      55.08400000      35.14200000      67.50400000 
H      55.11700000      36.28700000      68.80600000 
N      42.08600000      42.04800000      67.49300000 
C      42.49400000      40.86300000      68.23300000 
C      41.73600000      40.93000000      69.55500000 
O      41.94000000      41.84000000      70.36000000 
C      44.03000000      40.76400000      68.40600000 
C      44.67500000      40.38700000      67.05900000 
C      44.40100000      39.75700000      69.52200000 
C      46.20600000      40.54400000      67.02400000 
H      42.38500000      42.94500000      67.84500000 
H      42.16200000      40.00300000      67.67700000 
H      44.39500000      41.75700000      68.69500000 
H      44.41600000      39.34100000      66.83500000 
H      44.24300000      40.99300000      66.27200000 
H      45.47500000      39.63200000      69.56800000 
H      44.06200000      40.12200000      70.49300000 
H      43.94700000      38.79700000      69.32600000 
H      46.57800000      40.26500000      66.03400000 
H      46.49400000      41.57700000      67.19700000 
H      46.69900000      39.92500000      67.73700000 
N      40.09100000      38.69900000      72.94900000 
C      40.35600000      37.53700000      73.78000000 
C      39.20700000      37.34300000      74.75800000 
O      38.90800000      38.27500000      75.56600000 
C      41.74400000      37.61400000      74.47200000 
C      42.03500000      39.00200000      75.05600000 
C      42.82700000      37.20600000      73.45400000 
C      43.46200000      39.21900000      75.59800000 
H      40.02600000      39.57700000      73.38600000 
H      40.35700000      36.69500000      73.12800000 
H      41.74800000      36.87500000      75.26000000 
H      41.86500000      39.75000000      74.30300000 
H      41.32000000      39.18400000      75.85900000 
H      43.78400000      37.08700000      73.92000000 
H      42.56000000      36.26800000      72.98600000 
H      42.92200000      37.95000000      72.66800000 
H      43.53000000      40.19100000      76.01800000 
H      43.72900000      38.48500000      76.35900000 
H      44.18600000      39.15200000      74.80000000 
H      43.29171335      46.26037210      69.71327622 
H      41.14302847      44.50254567      72.51808329 
H      40.69590108      43.12425151      75.08162156 
H      38.52173951      41.07629869      77.61908685 
H      47.24686273      39.48946843      81.73857450 
H      57.75548679      47.97173792      67.00277313 
H      56.26040662      51.53722089      70.92951911 
H      44.84588834      43.95198426      83.74837833 
H      40.16936606      45.87053258      80.43188804 
H      40.56980540      47.76598545      76.92193847 
H      42.44793927      48.94796592      74.71175626 
H      43.66452952      50.80490162      71.35612544 
H      56.41653291      43.61213677      64.71936049 
H      50.04767202      35.60174726      81.87851639 
H      55.18231277      33.02651223      83.40759099 
H      53.26841524      32.09378648      79.99162216 
H      53.30324236      32.61867873      77.03184475 
H      52.54604172      36.22221094      66.36119534 
H      42.40804611      42.00378436      66.65375553 
H      41.06050383      40.22786395      69.78018857 
H      40.74878683      38.79024479      72.34155381 
H      38.69275148      36.48536579      74.76146835 
