 491 
 
N               201.3671343405       73.9677314122      108.6124809353
C               201.7750412077       72.9817797244      109.5794264963
C               201.0038352344       73.2143179605      110.8813092124
O               200.7707639118       74.3526492023      111.2727164208
C               203.2800790169       73.1346093310      109.9006666506
C               204.1261400156       72.9197667509      108.6812119219
C               204.3224309701       73.9460540521      107.7634450187
C               204.7046144442       71.6838122146      108.4303842627
C               205.0577455986       73.7426558336      106.6138526918
C               205.4462501338       71.4675957124      107.2829945288
C               205.6195162802       72.4933807166      106.3597998278
O               206.3308965976       72.3266361317      105.2151311876
H               201.1622580335       74.8778876451      109.0037142886
H               201.5764697646       71.9843179086      109.1833701445
H               203.4339190507       74.1403432232      110.3017448076
H               203.5246176266       72.3923555127      110.6618296789
H               203.9064332849       74.9242118845      107.9615583194
H               204.5763341169       70.8836365298      109.1452358316
H               205.2348257329       74.5474074928      105.9175890845
H               205.8923499246       70.4989352436      107.1076351053
H               206.6032007968       71.4048433684      105.1282778905
N               200.7116980436       72.0984242201      111.5458437259
C               199.9667919881       72.0787586743      112.7866749647
C               200.8122480890       71.4528822419      113.8855500335
O               201.4362430357       70.4095743145      113.6866070437
C               198.7025137006       71.2350442734      112.6417954668
H               200.9375450333       71.2012754076      111.1258940389
H               199.6999333247       73.1059864372      113.0469091211
H               198.1627904188       71.2437745985      113.5846680076
H               198.0717848194       71.6575741122      111.8641682075
H               198.9654446474       70.2153007082      112.3727988512
N               200.8479889644       72.0806918378      115.0566842673
C               201.4565490040       71.4092706502      116.1837105007
C               200.6625053638       70.1457791275      116.5169706723
O               199.4390478351       70.0942446656      116.4865930616
C               201.5374213412       72.3049309627      117.4149492622
C               200.1852352084       73.0080173263      117.7312453850
O               199.7644537840       73.8139045609      116.8705882078
O               199.6503965442       72.7429068509      118.8225213981
H               200.2399722320       72.8622938053      115.2940794435
H               202.4773720644       71.1214505730      115.8972199826
H               201.8391816779       71.7099364290      118.2801232429
H               202.2842469976       73.0803608584      117.2319545402
N               201.4424400069       69.0996419599      116.7968853168
C               200.9608265924       67.8634570065      117.3573948383
C               201.3827018328       67.8105772190      118.8284940692
O               202.1726641159       68.6060469495      119.3120622289
C               201.6122329292       66.6421693845      116.6486629021
O               202.9255639468       66.4443006889      117.1253497373
C               201.5676624686       66.7907432430      115.1325591898
H               202.4433106959       69.2449791639      116.8562870755
H               199.8725363944       67.8624082982      117.2517627842
H               201.0656764233       65.7425417438      116.9517348440
H               203.4444673581       67.2396421220      116.9056174627
H               202.0144479378       65.9121784168      114.6766165836
H               200.5389795673       66.8980193354      114.8037849949
H               202.1146827772       67.6806695897      114.8296429578
N               200.9234686154       66.7384525508      119.4978408008
C               201.2830578447       66.5450086175      120.8839813622
C               202.7286409860       66.0617291720      121.0385708759
O               203.3148041669       66.1786944181      122.1091109494
C               200.3574143769       65.4736816863      121.5076445022
O               199.0663383483       65.6630025783      120.9647960239
C               200.3650069311       65.5766127415      123.0265684973
H               200.0777491790       66.2718173761      119.1990838135
H               201.1862095910       67.4940553746      121.4273660325
H               200.7367503432       64.4865445601      121.1948945144
H               198.4286422277       65.1639949884      121.4933037983
H               199.8276256762       64.7399842664      123.4645960792
H               201.3891670651       65.5730615404      123.3882550951
H               199.8936053768       66.5095818870      123.3268690871
N               203.2365761172       65.3809880633      120.0043189876
C               204.5165712689       64.7005443994      120.1522720398
C               205.5369552156       65.6928004975      120.7181149290
O               205.6868461865       66.8025154459      120.2166752424
C               204.9954437333       64.1278663858      118.8092411541
C               203.9704179044       63.1494108731      118.2206342575
C               206.3512230067       63.4479568768      118.9955403292
C               204.1641124202       62.9569885243      116.7202931384
H               202.9175702209       65.5793979021      119.0607446091
H               204.3706222802       63.8899718058      120.8762420876
H               205.1032270623       64.9754412012      118.1278372215
H               204.0622073067       62.1914578282      118.7343204078
H               202.9635674971       63.5309486648      118.3926988230
H               206.6996355438       63.0304490419      118.0561841912
H               207.1067320810       64.1392641741      119.3609980378
H               206.2754713698       62.6321699288      119.7115061101
H               203.4059681850       62.2815202862      116.3348849905
H               204.0675164099       63.9145524773      116.2155990764
H               205.1403967062       62.5344592489      116.5005713443
N               206.2044578804       65.2837040015      121.8010541683
C               207.2049076188       66.0795005550      122.4805593259
C               208.5791604019       65.8875754376      121.8141841241
O               208.7570382967       65.0708344031      120.9241038558
C               207.2525561817       65.6732113507      123.9509928833
H               206.1336430029       64.3208768826      122.0928425602
H               206.9207520523       67.1339301607      122.3782806594
H               207.9186925959       66.3255067423      124.5067614912
H               206.2547720585       65.7421801190      124.3753757541
H               207.6162060492       64.6514570151      124.0433695136
N               209.5334144382       66.6962335758      122.2909305861
C               210.9206212869       66.6368194784      121.8804614669
C               211.7686293817       66.1740633796      123.0719637499
O               211.6309098582       66.6863752699      124.1764894411
C               211.4124167157       68.0303765819      121.4636465031
C               210.5626922930       68.6704387306      120.3588059220
C               210.8849076151       70.1601588948      120.2614793017
C               210.7910458765       67.9905500302      119.0129458140
H               209.3171143684       67.3703987183      123.0112437265
H               211.0005034226       65.9224765549      121.0589314615
H               211.3816214218       68.6678795301      122.3507628976
H               212.4472992976       67.9372783159      121.1301647457
H               209.5060406791       68.5718344974      120.6326648239
H               210.2650731930       70.6355227322      119.5045609819
H               210.6891629184       70.6641789299      121.2051873898
H               211.9304526566       70.3058965837      120.0017061826
H               210.1833263668       68.4802851204      118.2566712505
H               211.8384856420       68.0587563817      118.7298771658
H               210.5156386870       66.9405234039      119.0601216450
N               212.6680313895       65.2169833325      122.8090733736
C               213.5976194072       64.7465760946      123.8094358475
C               214.9968491304       65.1838094079      123.3825966069
O               215.6153724282       64.6377639267      122.4788266645
C               213.6126429838       63.2348158523      124.0073793051
C               214.8590929154       62.8801167191      124.8640472249
O               215.2825828985       63.8069241456      125.6067067573
O               215.3602114560       61.7546562648      124.7628743739
H               212.7519877105       64.8433614567      121.8683232965
H               213.3230326438       65.2323532515      124.7519861419
H               212.7122591143       62.8918741357      124.5185285086
H               213.6866812623       62.7019421737      123.0577005078
N               215.4577112198       66.2890244999      124.0000184024
C               216.7410209493       66.8511315883      123.6547567088
C               217.9418159151       66.1383799334      124.2872578742
O               219.0794301693       66.4549503897      123.9527882040
C               216.7809470648       68.3536932966      123.9616665792
C               215.9876565732       69.0910365964      122.8917417017
O               216.5040879649       69.4582174406      121.8468975992
N               214.6964018698       69.3089142007      123.1739417967
H               215.0248002863       66.5678653214      124.8683817601
H               216.8616935628       66.7063701726      122.5721276934
H               216.3850097610       68.5436795119      124.9580744088
H               217.8217795646       68.6759247800      123.9097399327
H               214.1054612058       69.7024249108      122.4568029926
H               214.2442901148       68.8907227487      123.9691200578
N               214.0208757091       76.6928229716      122.7456998978
C               213.1683192743       75.8271660482      121.9588325047
C               213.8446932015       75.6204947650      120.6056122537
O               214.7445360363       76.3572790542      120.2111508082
C               211.7798075191       76.4284441136      121.7735043135
C               210.9476483119       76.4909322499      123.0870308124
O               211.5145499270       76.3390241679      124.1717683356
O               209.7185352723       76.7113013809      122.9287504383
H               213.6421869436       77.5700471451      123.0624697076
H               213.0907757602       74.8541160886      122.4627886538
H               211.8602519074       77.4448718009      121.3753767882
H               211.2081916181       75.8423990929      121.0521544597
N               213.4359292806       74.5645426101      119.9001290293
C               213.9804493007       74.3263257558      118.5790283725
C               213.2931830444       75.2570565862      117.5755378278
O               212.0993737331       75.5333533277      117.6480580270
C               213.8289349736       72.8639476470      118.1643392951
C               214.9249192846       71.9551438134      118.7348539249
C               214.9583731634       71.9870107617      120.2609061992
C               214.6983083009       70.5302178587      118.2353477411
H               212.5933933767       74.0809846048      120.1765025158
H               215.0406400474       74.5953547361      118.6270914430
H               212.8494225167       72.5076983810      118.4874078439
H               213.8662810133       72.8149372071      117.0748474436
H               215.8898349997       72.3093750029      118.3588734378
H               215.6606400943       71.2470871360      120.6382140746
H               215.2584087711       72.9628870517      120.6329262929
H               213.9731351481       71.7656951017      120.6675762428
H               215.4707955476       69.8702893034      118.6167528128
H               213.7348637802       70.1612226931      118.5777474038
H               214.7129050063       70.4919251445      117.1495760277
N               212.0145550713       75.3567767443      114.4085648625
C               211.4590188330       74.6408214333      113.2769765361
C               211.2646881457       75.6008758328      112.0978246367
O               211.0030751019       76.7932489824      112.2595497495
C               210.1351154433       73.9886335721      113.6925691931
C               209.4114953693       73.3216417791      112.5557889037
C               209.6718620511       71.9933363544      112.2419245473
C               208.4473979746       74.0041458794      111.8221061561
C               208.9609377811       71.3473812636      111.2467114465
C               207.7347620035       73.3612419537      110.8241861898
C               207.9793177276       72.0271715461      110.5445375034
H               211.3355670773       75.7493413811      115.0529256852
H               212.1738212834       73.8728439784      112.9587704470
H               210.3639889307       73.2527368281      114.4653114921
H               209.5051490938       74.7634091155      114.1346724041
H               210.4374936129       71.4619336776      112.7865443050
H               208.2473458658       75.0489274126      112.0354106722
H               209.1834293114       70.3160990369      111.0204881435
H               206.9878295911       73.9101305360      110.2655199422
H               207.4014851681       71.5345603545      109.7775490513
N               214.7876751948       71.3990561731      111.3772391387
C               214.9215594384       72.0256543334      112.6667044222
C               216.3221239824       72.6146254050      112.8032887974
O               217.3079081781       72.0484196966      112.3448838670
C               214.7772597629       70.9943277881      113.8060896554
C               213.4512068305       70.2936005765      113.8130813028
C               213.1994207131       69.2705711591      112.9060810554
C               212.4728661248       70.6136097441      114.7434522798
C               212.0104308667       68.5722689079      112.9289423675
C               211.2861205181       69.9027966124      114.7935196248
C               211.0561266638       68.8734690867      113.8917308584
O               209.9085788057       68.1281101018      113.9309823882
H               215.5354588995       70.7644970510      111.1341473171
H               214.1622641683       72.8090829807      112.7368999036
H               215.5704579865       70.2573993372      113.6606038189
H               214.9408512039       71.5105806593      114.7532096797
H               213.9582655918       69.0063755867      112.1877598879
H               212.6415283546       71.4089154090      115.4540277691
H               211.8289761188       67.7941119433      112.2090719723
H               210.5494038519       70.1470800343      115.5464059768
H               209.3648890081       68.4184891426      114.6752293223
N               215.0667512425       65.1073934612      114.0664725573
C               214.1456869977       64.6280321848      115.0762386689
C               213.6073083088       63.2648046201      114.6388195521
O               213.1853875527       63.0783544948      113.5055198370
C               212.9906910577       65.6377349097      115.2572041537
C               211.9858504598       65.1168219452      116.2795453486
C               213.5485910979       66.9847234871      115.7084556068
H               214.7459636931       65.0194227510      113.1127397105
H               214.6923873046       64.5265056445      116.0144552029
H               212.5005040961       65.7552539901      114.2859739100
H               211.1872653165       65.8386289592      116.4234396293
H               211.5549494568       64.1671370468      115.9716184687
H               212.4741690162       64.9542372261      117.2390905862
H               212.7423940385       67.6936211765      115.8676248231
H               214.0903172266       66.8613846218      116.6428669206
H               214.2305569916       67.3994830320      114.9709904658
N               213.6685964117       62.3184358511      115.5838986198
C               213.0103813387       61.0318551108      115.4624684468
C               211.5142311560       61.3233803772      115.6272600363
O               211.0554392365       61.8012484718      116.6604006932
C               213.5264403021       60.0832821577      116.5313634889
C               212.7056221203       58.7697283966      116.5755305644
O               213.3027568536       57.6989527771      116.7333773909
O               211.4640694541       58.9065661548      116.4339344558
H               213.9561724709       62.5855281547      116.5156629318
H               213.2104430145       60.6309949233      114.4616237507
H               214.5835012460       59.8515357669      116.3912154092
H               213.3959184791       60.5381456836      117.5173359649
N               210.7780335348       61.2523884146      114.5085206988
C               209.4000281112       61.7025628941      114.4855580763
C               208.4573659059       60.8210850504      115.3195653665
O               207.3460711742       61.2305598958      115.6267212335
C               208.8678145723       61.8052390372      113.0456975453
C               208.7568064452       63.2383759518      112.5235169990
C               210.1016105758       63.9713188115      112.4677386520
C               210.0765477762       65.1263447202      111.4733020646
N               209.1541037419       66.2141052427      111.9092038059
H               211.1545541043       60.8090784056      113.6852086593
H               209.3742744365       62.6825504802      114.9785819740
H               209.5193778839       61.2204985977      112.3953557281
H               207.8773821850       61.3476731690      113.0177011000
H               208.3430897659       63.1677517303      111.5161644211
H               208.0468377495       63.7649358118      113.1627952311
H               210.3955167026       64.3183532139      113.4584978629
H               210.8815642804       63.2781473846      112.1522012203
H               211.0816508251       65.5320849342      111.3657086748
H               209.7390035606       64.7532968946      110.5058053597
H               209.0409536370       66.9141384054      111.1625220790
H               208.2320208168       65.8130136454      112.1312985104
H               209.5139392047       66.7062340582      112.7545324367
N               209.3518656208       59.2398985710      118.3839295790
C               209.4853403953       59.4028999018      119.8129410120
C               210.0731982004       60.7484863872      120.2673462965
O               210.1240436214       61.0240425668      121.4622997495
C               210.2821929299       58.2617071380      120.4569354080
C               211.7853522058       58.4410811669      120.2731927426
O               212.2542036330       59.3945652520      119.6543045972
N               212.5245655308       57.5033724125      120.8590293569
H               210.1939025674       59.1583261272      117.8167845615
H               208.4581458804       59.3758603910      120.2048080708
H               210.0886281305       58.2616105410      121.5306312136
H               209.9759558313       57.3046296781      120.0338630227
H               213.5490116007       57.5945958510      120.9212476297
H               212.0875554747       56.7631564741      121.3801876890
N               210.4039277388       61.5899837987      119.2906778214
C               210.8333501638       62.9456387973      119.4833439563
C               212.2850238726       63.2011988792      119.8557041621
O               212.6372229153       64.3473915485      120.1500201849
H               210.4635403901       61.2323345513      118.3440421406
H               210.6689730623       63.4732781795      118.5405667422
H               210.2150573588       63.4225769465      120.2529413692
N               213.1512349862       62.1919929244      119.8203291057
C               214.5542144076       62.4287531458      120.1106005002
C               215.1342032434       63.4316510248      119.1103080056
O               214.7429383689       63.4923165895      117.9494995298
C               215.3722614309       61.1443298312      120.0202342976
C               215.0608551060       60.1629972284      121.1384001510
C               215.8369035212       58.8318158688      120.9283015738
O               215.2342760674       57.7727400862      121.2192830717
O               217.0025854884       58.8998393705      120.5053633162
H               212.8404206089       61.2444209351      119.6422088543
H               214.6591320171       62.8531951336      121.1178354360
H               215.1807477541       60.6578786421      119.0591481501
H               216.4346480858       61.3930095134      120.0676635265
H               215.3588083159       60.5760733084      122.1079545700
H               213.9950941270       59.9378564093      121.1771184409
N               216.1239732729       64.1795409724      119.5938991254
C               216.8275111543       65.2019557389      118.8438005797
C               218.3036711204       64.8290988706      118.7078004757
O               218.9809713330       64.5024356613      119.6850374507
C               216.7445061029       66.5496301502      119.5902910366
C               217.5598034271       67.6316018311      118.8877947821
C               215.2924412068       66.9860384471      119.7470436162
H               216.3491633868       64.0933636816      120.5758442635
H               216.3614761334       65.2692083216      117.8570872919
H               217.1737626976       66.3722992335      120.5841788909
H               217.4625361125       68.5619901068      119.4416485777
H               218.6118442037       67.3610920009      118.8545352407
H               217.2012888832       67.7721007422      117.8715050641
H               215.2530699455       67.9040154505      120.3266967594
H               214.8474435565       67.1632394937      118.7711872201
H               214.7060312726       66.2203374010      120.2522879842
N               209.8718979402       79.2515738174      113.8878737840
C               208.8538958681       78.5206256513      114.6092332084
C               209.4677308038       77.7955217918      115.8102111417
O               209.7436139107       76.6008321576      115.7740981961
C               208.1419284119       77.5410418234      113.6846746214
C               207.4939921459       78.2457774421      112.4965937682
C               206.5953429824       79.4077904829      113.0018118884
O               205.5461156459       79.0924535136      113.5865641770
O               207.0063940856       80.5759298434      112.8108470744
H               210.2309367450       78.8218412849      113.0480948072
H               208.1322003328       79.2567260715      114.9922595407
H               208.8728459172       76.8108345396      113.3332962085
H               207.3694182635       77.0317952209      114.2658630024
H               208.2420438052       78.6437635811      111.8054091822
H               206.8595457570       77.5480965813      111.9440483206
N               209.6798931669       78.5561571709      116.8810165060
C               210.0247358493       77.9565457053      118.1602891607
C               208.9582285400       76.9080972971      118.4863093353
O               207.7663931813       77.2022390838      118.5021913953
C               210.0446884153       79.0021761975      119.2591266834
C               211.3713634850       79.8405752375      119.2708447460
O               212.4115899619       79.2508587781      118.9419262106
O               211.2699708380       81.0191979516      119.6513083487
H               209.4704042592       79.5442526730      116.8353036095
H               211.0127536725       77.4862192906      118.0841688399
H               209.1872763640       79.6718552602      119.1689355270
H               209.9767690781       78.5041114842      120.2322241939
N               209.4303903546       75.6965968690      118.7899887347
C               208.5606542653       74.5772165302      119.0599211510
C               208.9799527200       73.8445533729      120.3342223308
O               210.1451658742       73.6005857413      120.6066476352
C               208.5510502147       73.5483475374      117.9011967845
C               207.8065597313       74.1178004414      116.6991283213
C               209.9669647009       73.1364641435      117.5128609239
H               210.4039213750       75.4976203131      118.5961748424
H               207.5547435678       74.9981935280      119.1712093521
H               208.0073952384       72.6637117075      118.2485494596
H               207.8319068687       73.4099438962      115.8762956382
H               206.7635650917       74.3206341438      116.9386113216
H               208.2667598423       75.0486126691      116.3753081464
H               209.9207694600       72.2769621118      116.8516184590
H               210.4630221677       73.9584065357      117.0037973893
H               210.5353230874       72.8722369963      118.4009015540
N               207.9391813999       73.4153133067      121.0714345246
C               208.0338217484       72.4899518965      122.1807926784
C               207.5751348414       71.0728657377      121.8007464213
O               207.7270312249       70.1289653778      122.5595859842
C               207.1909172095       72.9766584339      123.3646865450
C               207.7333201740       74.2897393409      123.9230410855
C               206.7908148023       74.9111433678      124.9518409384
C               207.4527451965       76.0537226207      125.7119569359
N               207.8775763507       77.1536293504      124.8102808354
H               207.0109476239       73.7381290531      120.8395916981
H               209.0896284834       72.4405338425      122.4676434305
H               206.1570000022       73.0870838130      123.0288191005
H               207.2056200628       72.1972395492      124.1269413637
H               208.7065833188       74.1006293221      124.3802042794
H               207.8993299141       74.9808257046      123.0943000845
H               205.8841845478       75.2541907469      124.4513985949
H               206.4995964287       74.1475026602      125.6732623368
H               206.7463325812       76.4547296726      126.4411166425
H               208.3396327787       75.6822966876      126.2254048709
H               208.2171772057       77.9514212466      125.3551204320
H               208.6788987391       76.8751555448      124.1261129150
H               207.0980513887       77.4564318730      124.2176704182
N               207.0134118091       70.9620912901      120.5928927370
C               206.3511146968       69.7846857236      120.0971297431
C               206.5967527116       69.7129710234      118.5888378145
O               207.0139283386       70.6786205460      117.9582271344
C               204.8352454939       69.8515655587      120.3697863143
C               204.5963703868       70.1155580027      121.8452902531
O               204.6379547468       71.2454138421      122.3152064001
N               204.3746213616       69.0362402864      122.6028841325
H               206.9390265140       71.7674071995      119.9880603921
H               206.7725723884       68.9062816764      120.5942431135
H               204.4010092881       70.6760564161      119.7984500646
H               204.3584125679       68.9243505946      120.0627158802
H               204.2260342724       69.1641522869      123.5914636137
H               204.2837169806       68.1074466402      122.2206961757
N               206.3604998793       68.5243269023      118.0404137558
C               206.5361286104       68.3066331820      116.6176595638
C               205.3353888685       68.8905932659      115.8635061153
O               204.2043588525       68.8310247141      116.3390711039
C               206.6859826078       66.7971526477      116.3417103247
C               206.8324574960       66.4764303936      114.8557764191
C               207.8917197589       66.2548457542      117.1091871890
H               205.9779504754       67.7880621768      118.6255070199
H               207.4382939106       68.8608281366      116.3326661050
H               205.7761354090       66.3217888935      116.7186122638
H               206.9084077651       65.3968612568      114.7609845231
H               205.9764647693       66.8194690933      114.2826633320
H               207.7325897017       66.9383504259      114.4654596625
H               207.9831029834       65.1835648596      116.9582239765
H               208.8086964953       66.7333931798      116.7749956977
H               207.7984196045       66.4289806367      118.1781258983
N               205.6052941575       69.3962715818      114.6591305886
C               204.6281234861       69.9090294677      113.7185018196
C               204.3857655378       68.8381568334      112.6344073239
O               205.2951434215       68.0994092344      112.2927313806
C               205.1965026905       71.1430963321      113.0019685711
C               205.5637872573       72.2902347788      113.9473475052
C               204.3642609861       72.9975054254      114.5480984783
O               204.1791199803       73.0623332964      115.7540145497
N               203.5076587327       73.5384317470      113.6585283955
H               206.5529065891       69.3788863571      114.3087658803
H               203.7025342909       70.1477011097      114.2472963574
H               206.0984417523       70.8480269832      112.4596350725
H               204.4555433284       71.4881320707      112.2810823070
H               206.1607127171       71.9271023501      114.7852500873
H               206.1489278297       73.0344898573      113.4022201745
H               203.7308140201       73.6280519118      112.6825261405
H               202.7058665739       74.0461965973      113.9954449307
N               203.1685737160       68.8216952772      112.0881391308
C               202.8855739763       67.9824112826      110.9452123872
C               202.5032396447       68.8708626030      109.7701246642
O               201.8524436403       69.9044230489      109.9113016963
C               201.8017897617       66.9292194778      111.2571539525
C               200.4460778725       67.5701138759      111.5335930657
C               201.6924610032       65.9212609836      110.1198564543
H               202.4430652389       69.4420549902      112.4281206292
H               203.8228488262       67.4638275391      110.7128874794
H               202.1337888095       66.4126502239      112.1629836576
H               199.7196218465       66.7965342814      111.7649391239
H               200.5038990542       68.2627466064      112.3701966543
H               200.0959714446       68.1174383836      110.6593383568
H               200.9434510508       65.1760078145      110.3681249583
H               201.3835323019       66.4133742835      109.2012312421
H               202.6415212639       65.4253245640      109.9327079720
N               196.9469070301       63.7509879426      109.1063674307
C               196.9252966339       62.8985809330      110.2808598942
C               195.4988868869       62.6713619528      110.7929829025
O               195.0475981961       61.5448343864      110.9296497718
C               197.7950750299       63.5192248728      111.4062228464
O               199.0667192603       63.8687105508      110.9088197551
C               197.9038454530       62.5645159446      112.5873687394
H               197.8073147869       64.2552727373      108.9392610513
H               197.3298891070       61.9100904244      110.0176662881
H               197.3289711821       64.4618151328      111.7213544755
H               199.6781941768       63.1413883600      111.0896690349
H               198.4949838505       63.0257589297      113.3744498707
H               196.9209608930       62.3264290003      112.9828766502
H               198.3843626055       61.6388430443      112.2752205477
N               195.2908119151       76.6762755983      111.9613102370
C               196.6298312775       76.6158022834      111.4221043579
C               196.7397474300       75.7599175095      110.1612300794
O               197.8389322421       75.4083842852      109.7294759623
C               197.6018100205       76.0557343399      112.4563184603
C               197.2157520953       74.5847639737      112.7888322789
O               196.3860979372       74.0483122240      112.0161636859
O               197.7299287531       74.0690195883      113.7909692361
H               194.8964533076       75.7852080883      112.2240704257
H               196.9111873693       77.6414545581      111.1490091470
H               198.6098738076       76.0209924181      112.0385368270
H               197.6243740648       76.6473597051      113.3710113977
H               202.0230351108       74.0843865083      108.0073480837
H               217.7955101452       65.4204372698      124.9678112912
H               214.2741848722       76.2642074198      123.4954486401
H               213.8195842429       75.6631114278      116.8285296325
H               212.5309128591       74.8003220410      114.8920240627
H               211.3496071771       75.2644921581      111.1599361670
H               214.0250353749       70.9217859425      111.3528745735
H               216.4543836940       73.4852975546      113.2770370181
H               215.2310576198       65.9820374747      114.2006413469
H               208.7518670652       59.9113082178      115.6120977271
H               208.8880428934       58.4886580189      118.2092695938
H               218.7430687238       64.8464638035      117.8096756485
H               209.5441809556       80.0497677996      113.6319676589
H               202.7824437706       68.6211928277      108.8429191533
H               196.8033702995       63.2526526936      108.3708001757
H               194.9193670702       63.4534582035      111.0220729215
H               195.2879746306       77.1876867700      112.7018847189
H               195.9128399061       75.4776457280      109.6748695257
