330
Properties=species:S:1:pos:R:3 pbc="F F F"
N      55.16900000      20.14600000      37.89800000 
C      54.53800000      20.40100000      39.19000000 
C      54.80700000      21.78800000      39.66600000 
O      53.99700000      22.32000000      40.47800000 
C      55.17800000      19.36100000      40.24100000 
C      56.63900000      18.97900000      40.17700000 
C      57.55100000      20.17200000      40.75500000 
C      58.78600000      20.34300000      39.92200000 
N      59.58000000      19.07800000      39.94100000 
H      55.89400000      19.56200000      37.75900000 
H      53.54400000      20.27300000      39.17400000 
H      54.85100000      19.69400000      41.21900000 
H      54.59300000      18.42100000      40.02000000 
H      56.78000000      18.16100000      40.69900000 
H      56.93100000      18.85500000      39.16300000 
H      57.02300000      21.12100000      40.76400000 
H      57.79500000      19.89900000      41.78600000 
H      58.53800000      20.53000000      38.90800000 
H      59.40900000      21.07900000      40.29600000 
H      60.40500000      19.15500000      39.30500000 
H      59.91300000      18.84700000      40.82800000 
H      59.03300000      18.28200000      39.60300000 
N      55.82200000      22.48100000      39.13800000 
C      56.07800000      23.83400000      39.58100000 
C      55.10200000      24.81800000      38.91000000 
O      54.66600000      25.69900000      39.47200000 
C      57.49700000      24.21200000      39.22900000 
C      58.03600000      25.35800000      40.16800000 
C      58.84800000      24.80500000      41.30700000 
C      60.35300000      25.04400000      41.12100000 
N      60.82300000      24.46300000      39.76500000 
H      56.34800000      22.08900000      38.40600000 
H      55.91700000      23.91000000      40.67900000 
H      58.17000000      23.35000000      39.31100000 
H      57.55800000      24.55800000      38.18900000 
H      58.60700000      26.05500000      39.61000000 
H      57.14600000      25.87800000      40.58000000 
H      58.61000000      25.23800000      42.24000000 
H      58.66700000      23.68500000      41.44700000 
H      60.56200000      26.04800000      41.08800000 
H      60.91500000      24.53100000      41.84600000 
H      61.74400000      24.64400000      39.63800000 
H      60.67000000      23.47300000      39.70200000 
H      60.32300000      24.84000000      39.06300000 
N      54.93800000      24.52800000      37.60800000 
C      54.07900000      25.41700000      36.82100000 
C      52.65600000      25.31500000      37.28100000 
O      51.98100000      26.28600000      37.45400000 
C      54.28900000      24.93400000      35.36300000 
C      53.47700000      25.73300000      34.34800000 
C      51.99200000      25.31700000      34.21300000 
C      53.61300000      27.24600000      34.51200000 
H      55.36700000      23.75200000      37.17300000 
H      54.39500000      26.40400000      36.93200000 
H      55.27700000      25.00500000      35.15600000 
H      53.96700000      23.89200000      35.28700000 
H      53.89800000      25.48700000      33.37700000 
H      51.53700000      25.84400000      33.37400000 
H      51.88900000      24.29800000      34.13000000 
H      51.49100000      25.65800000      35.10400000 
H      53.16800000      27.77900000      33.67800000 
H      53.12400000      27.53600000      35.40700000 
H      54.69000000      27.52200000      34.56100000 
N      52.28000000      24.02100000      37.52700000 
C      50.80800000      23.90700000      37.93200000 
C      50.64600000      24.50600000      39.31000000 
O      49.55200000      25.21100000      39.55100000 
C      50.54400000      22.39800000      37.95600000 
C      49.08100000      21.98800000      38.01500000 
C      48.45600000      22.20900000      39.42100000 
C      48.25600000      22.59300000      36.94100000 
H      52.76700000      23.29800000      37.41300000 
H      50.20400000      24.40300000      37.26300000 
H      50.97800000      22.02000000      37.03600000 
H      51.13600000      21.92800000      38.77800000 
H      49.08500000      20.91600000      37.83800000 
H      47.48500000      21.70300000      39.45000000 
H      49.09800000      21.73000000      40.18800000 
H      48.32800000      23.20700000      39.61500000 
H      47.25300000      22.21400000      36.93200000 
H      48.14400000      23.72400000      37.14700000 
H      48.68700000      22.51000000      35.99900000 
N      51.55400000      24.29800000      40.19200000 
C      51.38200000      24.61900000      41.58700000 
C      51.74800000      26.09300000      41.89800000 
O      52.73200000      26.37600000      42.47500000 
C      52.13900000      23.66600000      42.47300000 
O      51.85600000      22.32700000      42.07300000 
C      51.68900000      23.79700000      43.97900000 
H      52.36100000      23.81800000      40.01200000 
H      50.23000000      24.51400000      41.83100000 
H      53.13800000      23.88000000      42.36100000 
H      52.51000000      22.05600000      41.44500000 
H      52.31600000      23.09800000      44.52800000 
H      51.89900000      24.80800000      44.31200000 
H      50.66000000      23.56300000      44.03200000 
N      50.88600000      26.98400000      41.34900000 
C      51.20100000      28.45300000      41.25000000 
C      50.06500000      29.14000000      41.99600000 
O      49.19500000      29.72200000      41.25700000 
C      51.37900000      28.85300000      39.92600000 
C      51.78800000      30.23800000      39.75200000 
N      51.34600000      31.02100000      38.76700000 
C      52.63500000      31.06500000      40.59000000 
C      51.90900000      32.30600000      38.92900000 
N      52.65800000      32.30900000      40.04000000 
H      50.09200000      26.63400000      40.78800000 
H      52.12300000      28.52300000      41.87300000 
H      52.14900000      28.16500000      39.40000000 
H      50.44000000      28.66900000      39.34200000 
H      50.71300000      30.84300000      38.03900000 
H      53.12000000      30.73400000      41.48300000 
H      51.74300000      33.13200000      38.29200000 
N      50.09100000      29.23100000      43.31200000 
C      49.05600000      29.86900000      44.00600000 
C      49.62800000      30.66100000      45.16300000 
O      50.46600000      30.34700000      45.77200000 
C      48.12200000      28.76900000      44.64600000 
C      47.44300000      27.93500000      43.54700000 
C      46.52400000      26.94400000      44.04200000 
O      46.79400000      25.70300000      44.05400000 
N      45.39400000      27.38700000      44.66500000 
H      50.82200000      28.81100000      43.81900000 
H      48.45700000      30.42200000      43.34400000 
H      48.71300000      28.14500000      45.31200000 
H      47.35300000      29.26900000      45.22800000 
H      46.91600000      28.58800000      42.86500000 
H      48.23600000      27.42800000      42.98100000 
H      45.21000000      28.32100000      44.65800000 
H      44.78000000      26.77000000      45.01600000 
N      48.92600000      31.88600000      45.25400000 
C      49.30700000      32.82600000      46.34300000 
C      48.49000000      32.46300000      47.59900000 
O      47.82900000      31.51300000      47.77400000 
H      48.25100000      32.12300000      44.74200000 
H      50.33800000      32.61500000      46.63900000 
H      49.18300000      33.75300000      46.06400000 
N      45.46100000      30.79400000      29.30000000 
C      46.82500000      30.88900000      29.68500000 
C      46.98700000      30.41500000      31.10900000 
O      46.32900000      30.87600000      32.01900000 
C      47.28600000      32.39700000      29.54700000 
C      46.54300000      33.34800000      30.43900000 
C      48.79800000      32.47200000      29.81000000 
H      44.79700000      31.41900000      29.55300000 
H      47.45000000      30.32100000      29.08700000 
H      47.10800000      32.63200000      28.51100000 
H      46.77300000      34.38500000      30.12400000 
H      45.48000000      33.27500000      30.34700000 
H      46.80800000      33.25300000      31.47100000 
H      49.14800000      33.47000000      29.59200000 
H      49.02000000      32.27400000      30.86100000 
H      49.34100000      31.79800000      29.19900000 
N      47.92300000      29.50300000      31.36900000 
C      48.30000000      29.07400000      32.72300000 
C      49.30800000      29.94800000      33.26500000 
O      50.51800000      29.73300000      33.03500000 
C      48.52800000      27.66300000      32.86400000 
C      49.52600000      27.14000000      31.82200000 
C      48.92200000      27.31800000      34.22600000 
H      48.46500000      29.19600000      30.53800000 
H      47.30900000      29.31500000      33.25800000 
H      47.57900000      27.13300000      32.62900000 
H      49.68700000      26.08300000      32.00100000 
H      49.21700000      27.17700000      30.85300000 
H      50.41200000      27.65200000      31.92700000 
H      48.97700000      26.28600000      34.42700000 
H      49.91200000      27.68600000      34.45100000 
H      48.13000000      27.71000000      34.96500000 
N      48.82500000      31.04800000      33.94300000 
C      49.68700000      31.94600000      34.69900000 
C      49.22300000      31.87500000      36.08300000 
O      49.17000000      30.86100000      36.71000000 
C      49.75800000      33.29300000      34.04300000 
C      50.79600000      34.14500000      34.69100000 
O      51.94900000      33.84900000      34.60200000 
O      50.31000000      35.22400000      35.39600000 
H      47.85200000      31.20500000      33.93800000 
H      50.71400000      31.48700000      34.65600000 
H      50.07800000      33.17600000      33.00200000 
H      48.74800000      33.76200000      34.05700000 
N      48.75700000      33.07900000      36.63400000 
C      48.12300000      33.13900000      37.91700000 
C      46.57300000      32.95600000      37.71400000 
O      45.91800000      32.57200000      38.71500000 
C      48.37000000      34.44600000      38.59500000 
C      47.92100000      35.63700000      37.78100000 
C      48.07800000      36.94000000      38.57200000 
O      48.49800000      36.92900000      39.83900000 
O      47.88500000      37.99000000      37.95100000 
H      48.97100000      33.90000000      36.16600000 
H      48.45800000      32.28100000      38.47500000 
H      47.91800000      34.37500000      39.55400000 
H      49.42400000      34.47600000      38.75600000 
H      48.39200000      35.72900000      36.88300000 
H      46.81100000      35.56400000      37.65700000 
N      46.09100000      33.24800000      36.60000000 
C      44.64900000      33.31200000      36.50000000 
C      44.01700000      31.98600000      36.31100000 
O      42.76000000      31.87400000      36.76400000 
C      44.25600000      34.25300000      35.27200000 
O      44.91600000      33.68000000      34.19600000 
C      44.70100000      35.73200000      35.53500000 
H      46.63600000      33.46000000      35.72200000 
H      44.25400000      33.77900000      37.31000000 
H      43.20900000      34.25500000      35.12700000 
H      44.97300000      34.33800000      33.36700000 
H      44.38100000      36.32900000      34.76400000 
H      44.36000000      36.03800000      36.45100000 
H      45.83600000      35.74300000      35.57400000 
N      44.57100000      31.02700000      35.71400000 
C      43.96600000      29.75900000      35.66300000 
C      43.76300000      29.14700000      37.11800000 
O      42.76100000      28.58400000      37.31400000 
C      44.76800000      28.76700000      34.76400000 
C      44.00500000      28.15800000      33.59900000 
C      44.81900000      27.50900000      32.68900000 
C      42.77600000      27.34500000      34.06900000 
H      45.49900000      31.16400000      35.36200000 
H      43.02800000      29.84200000      35.24300000 
H      45.65800000      29.27400000      34.42100000 
H      45.13200000      27.91700000      35.35400000 
H      43.57100000      29.12500000      33.05300000 
H      44.26900000      27.07600000      31.79600000 
H      45.63500000      28.09200000      32.22000000 
H      45.31400000      26.63500000      33.12500000 
H      42.23300000      27.06400000      33.21800000 
H      43.20000000      26.48700000      34.55100000 
H      42.17500000      27.90600000      34.74400000 
N      44.74900000      29.41700000      37.90400000 
C      44.61600000      28.85100000      39.24500000 
C      43.47700000      29.57000000      39.98200000 
O      42.96100000      28.98400000      40.98400000 
C      45.94400000      28.97800000      39.99600000 
C      46.99200000      27.93200000      39.72600000 
C      46.47100000      26.60200000      40.18000000 
C      47.34000000      27.88700000      38.28000000 
H      45.53700000      29.89900000      37.67300000 
H      44.34400000      27.85100000      39.21700000 
H      46.33800000      30.00900000      39.82800000 
H      45.69000000      28.96400000      41.10000000 
H      47.81700000      28.20100000      40.26800000 
H      47.31500000      25.80900000      40.03600000 
H      46.28500000      26.57600000      41.27800000 
H      45.64000000      26.22100000      39.68200000 
H      48.19200000      27.20200000      38.11500000 
H      46.51100000      27.52400000      37.64400000 
H      47.63700000      28.86500000      37.88600000 
N      43.15100000      30.70000000      39.59600000 
C      42.00300000      31.47800000      40.16000000 
C      40.79200000      31.21500000      39.49400000 
O      39.71000000      31.87500000      39.70800000 
C      42.30100000      32.96300000      40.27200000 
C      43.55900000      33.24200000      41.12900000 
C      43.69800000      34.68400000      41.38000000 
O      43.20600000      35.57200000      40.63100000 
O      44.44400000      34.98600000      42.44100000 
H      43.62700000      31.17000000      38.84900000 
H      41.89300000      31.08000000      41.17500000 
H      42.46100000      33.37200000      39.17000000 
H      41.46500000      33.45200000      40.67600000 
H      43.51600000      32.71100000      41.98900000 
H      44.42600000      32.92400000      40.57000000 
N      40.66900000      30.23900000      38.55600000 
C      39.54600000      29.85200000      37.84300000 
C      39.00100000      30.99300000      36.99400000 
O      37.80400000      31.06800000      36.71200000 
C      38.47200000      29.33700000      38.69100000 
C      38.74100000      28.01200000      39.31300000 
O      38.24200000      26.92000000      38.77500000 
N      39.55000000      27.93000000      40.35200000 
H      41.60000000      29.73500000      38.30400000 
H      39.85800000      29.06600000      37.13100000 
H      38.26700000      30.03100000      39.51000000 
H      37.54100000      29.23500000      38.15800000 
H      39.77500000      27.09800000      40.76000000 
H      39.93700000      28.73800000      40.76300000 
N      54.06500000      30.45200000      30.62400000 
C      52.67900000      30.72600000      30.41400000 
C      52.26600000      29.85000000      29.23100000 
O      51.80800000      30.42100000      28.21200000 
C      52.42200000      32.15300000      29.99800000 
C      52.68100000      33.06200000      31.36100000 
C      52.29500000      34.44800000      30.97700000 
N      52.22500000      35.22500000      32.23700000 
C      51.86400000      36.53500000      32.25700000 
N      51.82300000      37.23800000      31.21600000 
N      51.58900000      37.09900000      33.40700000 
H      54.70700000      30.43300000      29.84300000 
H      52.16500000      30.40400000      31.24500000 
H      53.07300000      32.46700000      29.30300000 
H      51.32100000      32.28800000      29.77800000 
H      52.11600000      32.72500000      32.08800000 
H      53.68200000      33.04900000      31.59100000 
H      52.92500000      34.90000000      30.27700000 
H      51.26300000      34.49000000      30.54400000 
H      52.37600000      34.73400000      33.05300000 
H      52.14100000      36.89300000      30.32200000 
H      51.45600000      38.23400000      31.26300000 
H      51.40200000      36.46600000      34.25900000 
H      51.37300000      37.98100000      33.54200000 
N      37.54300000      32.68300000      42.43600000 
C      37.86300000      33.44200000      43.59400000 
C      37.90000000      34.88100000      43.19400000 
O      37.67600000      35.31200000      42.10300000 
C      39.23700000      33.06700000      44.13800000 
C      39.52600000      31.62800000      44.17200000 
C      38.59800000      30.77800000      45.00100000 
C      40.43200000      31.05800000      43.43700000 
C      38.88700000      29.35100000      44.89700000 
C      40.70300000      29.66100000      43.39700000 
C      39.81200000      28.86800000      44.14600000 
O      39.96400000      27.50800000      44.14000000 
H      38.05400000      32.78900000      41.62000000 
H      37.13800000      33.29600000      44.31600000 
H      40.01500000      33.52400000      43.56300000 
H      39.33100000      33.50300000      45.14200000 
H      37.85900000      31.19000000      45.53100000 
H      41.10900000      31.69400000      42.87700000 
H      38.18600000      28.74300000      45.51700000 
H      41.41900000      29.26800000      42.80500000 
H      40.66600000      27.17300000      43.54300000 
H      54.55979937      19.80955310      37.32731788 
H      48.48822040      33.07632426      48.38882921 
H      45.40021481      30.81290188      28.40225400 
H      39.61863756      31.70166472      36.65294553 
H      54.41437505      31.07383743      31.17286727 
H      52.36498309      28.85643143      29.28598952 
H      37.61905755      31.80559238      42.62139448 
H      38.12869701      35.58200388      43.86949333 
