 373 
 
N                56.9599813027       25.0885700429       11.7395596508
C                57.6487041726       26.0420003208       12.5869611111
C                57.0299518715       26.0344225509       13.9837675763
O                57.7230098890       25.9780896264       14.9963501597
C                57.5748047803       27.4327821795       11.9662441090
H                56.7481550805       25.3716923956       10.7883717761
H                58.6969968446       25.7357040570       12.7175718214
H                58.0413443762       28.1544726761       12.6305488678
H                58.1072422842       27.4392963972       11.0190249150
H                56.5361976048       27.7103678908       11.8096896072
N                55.6969212893       26.1650594907       14.0137445009
C                55.0157762445       26.2281296702       15.2879381745
C                54.9757986914       24.8536558552       15.9611181142
O                55.2495203795       24.7487633305       17.1551674476
C                53.6616331852       26.9461766633       15.1980005021
C                52.6221962175       26.1238250334       14.4475791299
C                53.1752929880       27.2960239679       16.6029037746
H                55.1669641319       26.2546076381       13.1556134082
H                55.6604857653       26.8194249005       15.9532074694
H                53.8387756690       27.8752171645       14.6458497387
H                51.7159208155       26.7107473319       14.3267581101
H                52.9872090784       25.8405849064       13.4649717259
H                52.3712679716       25.2232778834       14.9997693352
H                52.2047705299       27.7832647100       16.5570555881
H                53.0850386243       26.3935186496       17.2016486642
H                53.8745303733       27.9679169208       17.0958353699
N                58.1102949054       25.0690951887       17.7801083678
C                58.1025849784       26.0534133102       18.8500661129
C                57.4513367646       25.4857136444       20.1172220312
O                57.9224655682       25.6683407589       21.2307198425
C                57.3285243224       27.2992693876       18.3982041771
C                57.1948829051       28.3309745744       19.4898409059
C                58.3049323701       29.0254768057       19.9547679590
C                55.9514165606       28.6215085134       20.0361034795
C                58.1708003593       29.9961436395       20.9325416045
C                55.8142572898       29.5977633191       21.0087261379
C                56.9231383633       30.2959891596       21.4541580234
H                57.7638634905       25.3486609918       16.8669287171
H                59.1346846568       26.3100243398       19.1224181919
H                57.8572035704       27.7262307190       17.5420755686
H                56.3352636876       26.9737872555       18.0827289282
H                59.2783733883       28.7997618044       19.5459591558
H                55.0823938291       28.0778879081       19.6950927631
H                59.0444359977       30.5186656696       21.2886181449
H                54.8387654803       29.8197578716       21.4144427261
H                56.8102229091       31.0569257108       22.2116125419
N                41.3676040668       28.5315770768       24.2311666735
C                42.8138827816       28.6200113159       24.3977302159
C                43.0025379735       29.5043302788       25.6339391097
O                42.5754271682       30.6531342102       25.6484466572
C                43.5462782194       29.2290339281       23.1967842852
C                45.0175825020       28.7915765982       23.1461821962
C                45.1467721233       27.3160183248       22.7682414810
C                45.7638416596       29.6658451076       22.1393262123
H                40.8467580780       29.3441105970       24.5279961920
H                43.1774452843       27.6076271741       24.5873353417
H                43.0562779533       28.9280916041       22.2709366268
H                43.4940910695       30.3157450129       23.2848739636
H                45.4612204137       28.9490884539       24.1378140846
H                46.1972083430       27.0564386556       22.6756551616
H                44.7120838771       26.6732064022       23.5297967784
H                44.6548642261       27.1297673924       21.8167576013
H                46.8283377767       29.4437224189       22.1481846253
H                45.3834290285       29.5001363602       21.1345128462
H                45.6245455164       30.7111485121       22.3996733604
N                45.6188966745       30.7019457303       28.9760191397
C                46.9482269911       30.9215312380       29.5031795802
C                46.9467012216       30.4787567714       30.9661182269
O                45.9942163141       30.7049863890       31.7113857612
C                47.3720685087       32.3980463868       29.3406735273
C                46.4282118048       33.3663593930       30.0607920608
C                48.8137759088       32.5636645136       29.8179860660
H                44.8742500730       31.1983721501       29.4418160791
H                47.6317240429       30.2842154598       28.9305777387
H                47.3337034265       32.6059696399       28.2663068065
H                46.8920676675       34.3480994491       30.1166037722
H                45.4822976288       33.4680297235       29.5305408216
H                46.2251208557       33.0269654464       31.0752903005
H                49.1851396791       33.5411162953       29.5198277635
H                48.8714476505       32.4807168718       30.9027021807
H                49.4437593732       31.7940993000       29.3726852185
N                42.3276222331       33.9760772024       24.9702023863
C                42.9514418139       34.4561497309       23.7451722042
C                43.2369318368       33.2959531547       22.7745281152
O                43.9914616112       32.3864805774       23.0790153131
C                44.2843592770       35.1240240074       24.0912285491
C                44.9280166264       35.8429371020       22.8965954424
C                44.2286993382       37.1743687726       22.6253292925
C                46.4153989633       36.0713835700       23.1708544894
H                42.8729096660       33.9812759015       25.8194466164
H                42.2509230902       35.1578319799       23.2758670132
H                44.1221581679       35.8368149002       24.9019161951
H                44.9506090672       34.3345815032       24.4502028023
H                44.8344926400       35.2028075216       22.0119661876
H                44.6347964211       37.6428491561       21.7335938199
H                43.1626116177       37.0322861340       22.4688930530
H                44.3574009967       37.8403218699       23.4748422322
H                46.8801383090       36.5527157326       22.3141600761
H                46.5489264777       36.6814821720       24.0618149493
H                46.9205840162       35.1223511096       23.3332157586
N                45.8449275153       26.4538614906       15.4827955543
C                46.0650728746       27.5285602303       14.5483986678
C                45.6467694416       27.0657838041       13.1533819089
O                45.6550820459       25.8922363166       12.8259552247
C                47.5625603135       27.8863462837       14.4803461462
C                48.1039511894       28.2188195457       15.8390412129
C                47.6779279050       29.3640343779       16.4974995758
C                49.0167552225       27.3840891740       16.4643828774
C                48.1414167225       29.6589410049       17.7653828538
C                49.4900223620       27.6819603656       17.7292613308
C                49.0471248541       28.8155684223       18.3858196608
H                46.0914803147       25.5323422499       15.1414516703
H                45.4766418463       28.3944878047       14.8697136456
H                48.0896175587       27.0307594399       14.0559974572
H                47.6737824478       28.7341612947       13.8060256492
H                46.9645133757       30.0139088690       16.0148342775
H                49.3494124638       26.4927777920       15.9560818595
H                47.7882972489       30.5459094970       18.2689280528
H                50.1992786029       27.0232228760       18.2035604137
H                49.3979042325       29.0402859772       19.3790237681
N                50.0870038234       31.3174400589       10.1822582934
C                50.3352565730       31.3755155114       11.6142135358
C                51.5632356929       32.2571820918       11.8956755894
O                52.6934494718       31.9157130075       11.5870355515
C                50.5648958123       29.9727040855       12.2067714930
C                50.5661617283       30.0645784250       13.7310264387
C                49.4888112405       29.0089996404       11.7193818885
H                50.6220216705       30.6491895870        9.6426847433
H                49.4381662627       31.8224798054       12.0576441051
H                51.5460514771       29.6192431520       11.8765791031
H                50.7468823041       29.0862714380       14.1664674785
H                51.3355924158       30.7505016669       14.0761430208
H                49.6038288751       30.4190399677       14.0922719576
H                49.5408225249       28.0690368601       12.2585806521
H                48.4989135506       29.4330821664       11.8807431896
H                49.5740386435       28.7910593397       10.6588123941
N                51.3041176830       33.4088334660       12.5325234148
C                52.3247012227       34.3974902029       12.8280841192
C                52.9334787593       34.0540325553       14.1901119728
O                52.4800688642       34.5146040399       15.2402187416
C                51.6628975239       35.7881366170       12.8641403397
O                50.5324857700       35.7357678313       13.7118560992
C                51.2116712616       36.2256093480       11.4765271735
H                50.3607620181       33.6976250333       12.7579699990
H                53.1078359383       34.3550519562       12.0645270262
H                52.4019790737       36.5061961168       13.2525892066
H                50.8519885851       35.4279590542       14.5775984648
H                50.6865407108       37.1728761965       11.5593037882
H                52.0823208574       36.3630545292       10.8419899057
H                50.5491098859       35.4816815941       11.0407708268
N                53.9038664689       33.1461344789       14.1647006641
C                54.4672782300       32.6266789084       15.3960054785
C                55.1954845933       33.7042036932       16.2113260918
O                55.0726104125       33.7169217721       17.4383003890
C                55.2936003670       31.3533652135       15.1408423701
C                56.5639593633       31.6308101544       14.3427812737
C                55.6192297065       30.6674495958       16.4683159305
H                54.2400899675       32.8004742982       13.2765433251
H                53.6175264922       32.3537038393       16.0385612008
H                54.6525357035       30.6868502584       14.5513262999
H                57.0956864712       30.6989627835       14.1629745926
H                56.3404296623       32.0909962253       13.3819850761
H                57.2165884741       32.3104370961       14.8847925625
H                56.1114628632       29.7149336168       16.2913473624
H                56.2747600465       31.2916314577       17.0685336265
H                54.7129188629       30.4888054034       17.0405443848
N                55.9353408909       34.5901756361       15.5656461453
C                56.5191625919       35.6845741985       16.3105478870
C                55.4285675292       36.3861458828       17.1082297436
O                55.4980478167       36.5174414653       18.3255655914
C                57.2106332667       36.6874278661       15.3898061889
C                58.2389886932       36.0216013819       14.4704855030
C                57.5943133455       35.6234848429       13.1080802991
O                56.5152026794       34.9716445709       13.1210388531
O                58.1843668262       35.9665974954       12.0738899536
H                56.0854110718       34.6491249306       14.5249311490
H                57.2429503475       35.2724345439       17.0285126665
H                56.4592313837       37.1895990195       14.7719930526
H                57.6694338096       37.4673666727       16.0031397705
H                59.0641488149       36.7042942859       14.2524105770
H                58.6454579152       35.1217128902       14.9402549951
N                54.3774965294       36.7947437594       16.3985544386
C                53.3762476157       37.6170938348       17.0341879341
C                52.7574317856       36.8696670364       18.2106079836
O                52.4738672120       37.4407794590       19.2582883129
C                52.3064419405       38.0218404810       16.0292172949
C                53.0025111748       38.7731116370       14.8517339178
O                52.7985518365       39.9928213776       14.7617388715
O                53.7300103393       38.0717570916       14.1076134044
H                54.4103527170       36.8952209868       15.3847905709
H                53.8495771480       38.5335195856       17.4203404381
H                51.8097683549       37.1346082666       15.6399526023
H                51.5871639608       38.6915818029       16.4981762632
N                52.5185745816       35.5786828201       17.9940825902
C                51.9595420300       34.7271400423       19.0276771053
C                52.7217074143       34.9519135907       20.3354215955
O                52.1641964910       35.3031726509       21.3709770311
C                52.0425247312       33.2720263873       18.5753079841
C                51.5202692730       32.2763905426       19.6155581889
C                50.0139105649       32.4338823777       19.8114409744
C                51.8681451296       30.8576978907       19.1729632677
H                52.7611923038       35.1636886231       17.1029064755
H                50.9204482983       35.0310458599       19.2044311450
H                51.4702715607       33.1767518230       17.6489988334
H                53.0882244389       33.0565626748       18.3458656122
H                52.0224614479       32.4794712472       20.5681204034
H                49.6267313940       31.6276851659       20.4284708680
H                49.7922233619       33.3786288833       20.3002575751
H                49.5076363576       32.4098515694       18.8489829632
H                51.5501160614       30.1410174867       19.9240065534
H                51.3717436654       30.6232926858       18.2339252164
H                52.9419648399       30.7544695495       19.0347585182
N                54.0291306517       34.6894030714       20.2802758350
C                54.8334922336       34.7872190471       21.4834584430
C                54.8075153535       36.2142430151       22.0339468694
O                54.7678880693       36.4344131359       23.2408260156
C                56.2462147654       34.2313462751       21.2811769994
C                57.2518462988       35.2284529514       20.7106318015
C                58.6004771269       34.5540487581       20.4529360554
C                59.6190295635       35.5653601891       19.9357582007
N                60.9282044812       34.9017946315       19.6739249394
H                54.4738767141       34.4855206086       19.3947312868
H                54.3496309137       34.1724462245       22.2556143929
H                56.5893888039       33.8748471827       22.2533581125
H                56.1609221377       33.3723439764       20.6124656570
H                56.8622841796       35.6400218467       19.7804094239
H                57.3816851761       36.0481324093       21.4184383570
H                58.9471364220       34.1088459911       21.3858715695
H                58.4519510983       33.7562867234       19.7237494910
H                59.2573160003       36.0149310859       19.0094015311
H                59.7664618909       36.3561337162       20.6729305578
H                61.6192226678       35.5827792755       19.3285572907
H                61.2857034157       34.4709413055       20.5400697962
H                60.8142800631       34.1611421727       18.9654352965
N                54.8222700069       37.1814510961       21.1141596113
C                54.7568420858       38.5855931164       21.4426614501
C                53.4908072247       38.9992318357       22.2114324270
O                53.4213212798       40.1300316397       22.6805179363
C                54.8435072811       39.4388479810       20.1762994291
C                56.2250315668       39.4063692468       19.5164549787
C                56.1631023232       40.0395135529       18.1362486623
O                56.3811149977       39.4067034143       17.1099878060
N                55.8740631662       41.3512319991       18.1262554731
H                54.8324085484       36.9392291456       20.1304791319
H                55.5926334660       38.8385231935       22.1117645049
H                54.0949461883       39.0614123781       19.4779593619
H                54.5707471568       40.4596942527       20.4438080233
H                56.9523751243       39.9400487928       20.1284241933
H                56.5463848087       38.3742444265       19.3796452694
H                55.6422560204       41.8377255347       18.9754442985
H                55.7252380209       41.8129478457       17.2432587997
N                52.5340640068       38.0838028366       22.3712982848
C                51.3548138108       38.3491445639       23.1587279653
C                51.3814123931       37.6503528602       24.5273122821
O                50.3753772401       37.5819167064       25.2154453933
C                50.0703944865       38.0323389146       22.3940191851
C                49.8931560040       38.9992174604       21.2218456501
C                48.4705532642       39.0206614753       20.6261895307
N                47.8226725486       40.3058277374       20.8273726680
C                47.2133521124       40.7135776402       21.9408779248
N                46.8734652895       41.9953104355       22.0662016644
N                46.8998760830       39.8629377357       22.9099416991
H                52.5564176307       37.2067044641       21.8645294633
H                51.3829423791       39.4234455543       23.3959123547
H                50.1295195127       37.0054034146       22.0305630994
H                49.2560609813       38.1061514265       23.1144150781
H                50.1421661280       40.0054939939       21.5631478526
H                50.6208531087       38.7363157863       20.4536397728
H                48.5069436149       38.8492085245       19.5508320985
H                47.8628324677       38.2244074509       21.0555575899
H                48.0961182403       41.0176746879       20.1648614728
H                47.0990007258       42.6740511575       21.3573571343
H                46.3548590597       42.3120911734       22.8697771790
H                47.1314860218       38.8845943321       22.8477824493
H                46.4109133566       40.1842562760       23.7288154263
N                52.5852031644       37.2304980702       24.9398323018
C                52.8110572908       36.7692022443       26.2850383772
C                53.0380744795       35.2690604186       26.4554593081
O                53.2298369364       34.8013860092       27.5687419555
H                53.3735545120       37.2283622509       24.3011124547
H                53.6803897676       37.2821481010       26.7058892880
H                51.9204679532       37.0311112247       26.8657165406
N                52.9552373005       34.5429916606       25.3361862372
C                53.1683047672       33.1070163632       25.3061224855
C                54.6931055265       32.8885404336       25.3600209978
O                55.4134549342       32.9470929680       24.3773436871
C                52.5548640264       32.4769748764       24.0492037385
C                51.0567184892       32.7764878239       23.8953682640
C                52.8348825784       30.9740620017       24.0392587510
C                50.1777524468       32.2377575147       25.0182694477
H                52.9565614780       35.0234600839       24.4474385265
H                52.7074585772       32.6784546662       26.2036068377
H                53.0611382178       32.9194237387       23.1821303157
H                50.9162057377       33.8562152969       23.8110591294
H                50.7317936071       32.3377769971       22.9486665359
H                52.3117373913       30.5054003085       23.2098187285
H                53.8986586857       30.7908076842       23.9109724211
H                52.5166600970       30.5073867703       24.9679861818
H                49.1321963343       32.4121264823       24.7774997865
H                50.3212480868       31.1699464390       25.1507005103
H                50.3992036740       32.7295231998       25.9601224186
N                55.1513621764       32.7182100858       26.6116603892
C                56.5146228413       32.3878965956       26.9400367919
C                56.5012984154       31.0047724202       27.5934368976
O                55.4404977464       30.5050136962       27.9556164179
C                57.1131121189       33.4425660943       27.8952006759
O                57.2972878386       34.6310524102       27.1726768799
H                54.4843473021       32.4927100104       27.3371604708
H                57.0919107575       32.3867355894       26.0115177158
H                56.4153568225       33.5987242382       28.7326089619
H                58.0719235577       33.0731413105       28.2856089206
H                57.7985365439       35.2573781082       27.7116715930
N                54.1521162575       30.7209117909       30.3922659120
C                52.7534534878       30.9498158654       30.0819763055
C                52.3277157830       30.0687553253       28.8924833587
O                51.9613481060       30.5495683536       27.8206046972
C                52.5432748620       32.4351611144       29.7812956751
C                52.7261193657       33.2802364399       31.0373026686
C                52.3727532363       34.7425869221       30.7971479650
N                52.4560259320       35.4614617560       32.0514409199
C                52.2838750841       36.7659552020       32.2115731646
N                52.1047310586       37.5842720310       31.1725881687
N                52.3767388741       37.2567514262       33.4480145555
H                54.7601137126       30.5948672880       29.5890022319
H                52.1606028025       30.6921648129       30.9736651064
H                53.2281853357       32.7766837920       29.0028690655
H                51.5354227634       32.5586769560       29.3955564040
H                52.0973078278       32.8750618242       31.8355485660
H                53.7613579645       33.2198677195       31.3785771671
H                53.0705459592       35.1638504440       30.0693563759
H                51.3619224505       34.8078215968       30.3806053481
H                52.3916679642       34.8963998025       32.9023589172
H                52.0823064644       37.2065885779       30.2397230729
H                52.0177646986       38.5783068139       31.3169234033
H                52.3131545455       36.5917956546       34.2138321183
H                52.1565444841       38.2179141013       33.6425410913
N                49.9986696066       27.1241528138       26.8261870549
C                48.6385004219       27.1607426567       26.3428806945
C                47.8875507401       25.8767392779       26.7185988349
O                48.4329295666       24.7890251978       26.8132132606
C                48.5695283102       27.4569616608       24.8268881197
C                49.5237770423       26.6348548553       23.9429675166
C                48.9360852373       26.4345133412       22.5454642756
C                50.8795424163       27.3300999073       23.7872296902
H                50.6092290338       26.4429588826       26.4021105196
H                48.1609149637       27.9903575057       26.8748973083
H                47.5392696091       27.2988456771       24.5053616481
H                48.7989273080       28.5133733077       24.6812581570
H                49.6571859067       25.6454492472       24.3872211131
H                49.6549194166       25.9151038533       21.9162570786
H                48.0244627428       25.8429065345       22.5720244590
H                48.7097915806       27.3931766308       22.0858630605
H                51.5544639974       26.6910110495       23.2210880809
H                50.7478023664       28.2653781956       23.2436077401
H                51.3326062211       27.5549477731       24.7485293679
H                57.4581659606       24.3433501725       11.6591893126
H                54.7274605205       24.0437083648       15.4297865645
H                58.9538463908       24.7921311601       17.6327590606
H                56.6125527494       24.9455063534       20.0492701471
H                41.1723550246       28.4082625007       23.3612981048
H                43.4772941396       29.1455588342       26.4376117006
H                45.5913147425       30.9590305387       28.1139596068
H                47.7346746828       29.9908415677       31.3416665973
H                41.6052816846       34.4794902238       25.1567485250
H                42.8007264542       33.2778782684       21.8748625314
H                46.3367347301       26.5941737602       16.2233616421
H                45.3527329853       27.7356612235       12.4716144960
H                49.2246501573       31.1059782691       10.0351866577
H                57.3579277564       30.5061910945       27.7261125690
H                54.4772419597       31.4241567023       30.8502395710
H                52.3437059076       29.0724833037       28.9772558474
H                50.3885424773       27.9232998599       26.6870355428
H                46.9044589807       25.9071137607       26.8991756421
