148
Properties=species:S:1:pos:R:3 pbc="F F F"
N      55.17200000      51.15200000      47.83600000 
C      55.70400000      52.00200000      46.76800000 
C      56.39200000      53.19200000      47.45800000 
O      55.83400000      53.74700000      48.39900000 
C      54.55600000      52.53000000      45.84300000 
C      54.01700000      51.36500000      44.99400000 
C      54.98400000      53.72600000      44.99000000 
C      52.81500000      51.74500000      44.11900000 
H      54.61200000      51.61700000      48.49600000 
H      56.41200000      51.43800000      46.19100000 
H      53.75000000      52.86700000      46.51100000 
H      54.84500000      51.01800000      44.32200000 
H      53.75900000      50.55400000      45.62300000 
H      54.17100000      54.06500000      44.37000000 
H      55.29000000      54.58600000      45.60600000 
H      55.83000000      53.47500000      44.33400000 
H      52.38800000      50.84600000      43.66200000 
H      52.03100000      52.21300000      44.71300000 
H      53.07400000      52.42000000      43.31100000 
N      57.54700000      53.61800000      46.95400000 
C      58.05500000      54.92800000      47.30200000 
C      58.92200000      55.36600000      46.12100000 
O      59.66400000      54.57500000      45.54900000 
C      58.78700000      54.96400000      48.67200000 
C      60.30000000      54.72400000      48.73000000 
C      61.04600000      55.91900000      49.34200000 
C      60.91700000      57.16900000      48.48000000 
N      61.29800000      58.41800000      49.20200000 
H      58.00900000      53.09500000      46.23000000 
H      57.21500000      55.58200000      47.37300000 
H      58.56100000      55.92100000      49.11500000 
H      58.27600000      54.24600000      49.29100000 
H      60.51800000      53.85200000      49.33700000 
H      60.72100000      54.50800000      47.75000000 
H      60.64300000      56.11900000      50.33600000 
H      62.10700000      55.68200000      49.48400000 
H      61.54800000      57.11200000      47.61200000 
H      59.91100000      57.32500000      48.16000000 
H      61.14700000      59.23800000      48.61100000 
H      60.73600000      58.54700000      50.03400000 
H      62.25700000      58.42000000      49.48800000 
N      58.86000000      56.66700000      45.77400000 
C      59.75600000      57.27700000      44.81000000 
C      59.74200000      58.77000000      45.08300000 
O      58.71100000      59.34800000      45.39500000 
C      59.38200000      56.92300000      43.34500000 
C      58.03400000      57.41200000      42.84100000 
C      57.97300000      58.80700000      42.25100000 
O      56.82100000      59.26100000      41.99700000 
O      59.06200000      59.41300000      42.01000000 
H      58.16900000      57.25700000      46.20300000 
H      60.74400000      56.88400000      44.99400000 
H      60.16500000      57.32600000      42.70900000 
H      59.44900000      55.86000000      43.27500000 
H      57.68700000      56.73500000      42.06700000 
H      57.28500000      57.34500000      43.62500000 
N      60.93200000      59.39600000      44.98300000 
C      61.04900000      60.82200000      45.11300000 
C      61.13100000      61.31100000      46.53800000 
O      60.82500000      60.57600000      47.53700000 
H      61.74100000      58.87800000      44.77500000 
H      61.96100000      61.14000000      44.59700000 
H      60.22500000      61.32300000      44.65400000 
N      61.49100000      62.57900000      46.71700000 
C      61.49200000      63.26800000      48.01000000 
C      61.11100000      64.70900000      47.76600000 
O      61.95300000      65.64500000      47.86900000 
C      62.83000000      63.12600000      48.71300000 
C      62.78000000      63.67500000      50.11700000 
O      61.72700000      63.90300000      50.70200000 
N      64.01500000      63.87500000      50.70300000 
H      61.81200000      63.09300000      45.91800000 
H      60.71800000      62.81500000      48.61900000 
H      63.06700000      62.08400000      48.78100000 
H      63.61200000      63.60500000      48.14900000 
H      64.01900000      64.19900000      51.65300000 
H      64.83000000      63.71100000      50.25200000 
N      59.84000000      64.94300000      47.37100000 
C      59.35300000      66.21300000      46.90800000 
C      57.82100000      66.12300000      46.83700000 
O      57.09200000      67.00200000      47.37000000 
C      59.96200000      66.55500000      45.52900000 
C      59.47700000      67.87900000      44.92200000 
C      59.89600000      69.13300000      45.69800000 
O      60.82000000      69.08200000      46.52700000 
N      59.22800000      70.21600000      45.43200000 
H      59.22700000      64.15400000      47.42000000 
H      59.58800000      66.99100000      47.62800000 
H      61.03200000      66.59400000      45.65100000 
H      59.71600000      65.75700000      44.83000000 
H      59.90800000      67.98100000      43.93400000 
H      58.39300000      67.89800000      44.79000000 
H      58.46900000      70.25600000      44.76600000 
H      59.47800000      71.09500000      45.89200000 
N      63.72500000      58.00400000      54.54500000 
C      64.56500000      58.18600000      53.33900000 
C      65.55300000      59.32600000      53.58000000 
O      65.15100000      60.46000000      53.87900000 
C      63.60800000      58.49500000      52.15000000 
C      64.28300000      58.60400000      50.80700000 
C      64.66400000      57.45600000      50.08900000 
C      64.49300000      59.83800000      50.21100000 
C      65.20700000      57.54900000      48.82300000 
C      65.05600000      59.94800000      48.92400000 
C      65.39900000      58.77600000      48.25300000 
O      65.94900000      58.81400000      46.98900000 
H      63.05300000      58.70700000      54.73500000 
H      65.07900000      57.27300000      53.15100000 
H      62.88100000      57.70300000      52.13300000 
H      63.07200000      59.42200000      52.36500000 
H      64.50500000      56.47800000      50.53600000 
H      64.22400000      60.73800000      50.72700000 
H      65.48800000      56.65400000      48.27900000 
H      65.22100000      60.90400000      48.48900000 
H      66.11800000      59.70700000      46.64000000 
N      66.84600000      59.01800000      53.45500000 
C      67.90100000      59.95000000      53.66100000 
C      68.15700000      60.81000000      52.41600000 
O      67.73900000      60.50200000      51.29900000 
C      69.18700000      59.27200000      54.11000000 
C      69.34400000      59.10900000      55.62200000 
O      68.42400000      59.53900000      56.37100000 
O      70.43500000      58.57500000      55.99100000 
H      67.09500000      58.09600000      53.14900000 
H      67.58600000      60.63200000      54.45500000 
H      69.26100000      58.28600000      53.64600000 
H      70.06100000      59.81700000      53.77000000 
N      68.91400000      61.89800000      52.61000000 
C      69.21800000      62.84100000      51.57300000 
C      69.92100000      62.19100000      50.38400000 
O      69.81900000      62.68700000      49.25500000 
C      70.12400000      63.98300000      52.10400000 
C      69.80100000      64.43500000      53.49400000 
N      68.60700000      65.00300000      53.85500000 
C      70.61000000      64.31700000      54.59800000 
C      68.64900000      65.24300000      55.13500000 
N      69.85700000      64.84500000      55.65100000 
H      69.19700000      62.13400000      53.55000000 
H      68.28200000      63.27400000      51.18800000 
H      71.16800000      63.65000000      52.08200000 
H      70.04100000      64.82300000      51.40900000 
H      71.56700000      63.94100000      54.73500000 
H      67.90400000      65.66300000      55.73400000 
H      70.14500000      64.91200000      56.58600000 
H      54.66238684      50.50261170      47.47740655 
H      57.38657322      65.35771088      46.36202007 
H      63.25918992      57.23722431      54.47375384 
H      70.46529516      61.36266671      50.51669036 
