 260 
 
N                20.1205833814       21.9197489614       72.4286193289
C                19.4258386651       22.7866503979       73.3483729658
C                20.0046937816       22.5472125483       74.7424834224
O                20.6691763154       21.5518250348       74.9963683768
C                17.9045633735       22.5533196366       73.2928408383
C                17.5063615533       21.1206452859       73.6094952490
S                15.8045170894       20.7608495491       73.0577130815
C                14.8494849380       21.8339464978       74.1611087864
H                20.5477730749       21.1109267048       72.8668158012
H                19.6109602824       23.8303682141       73.0793858908
H                17.4192438300       23.2533277084       73.9746429812
H                17.5630215681       22.8047257078       72.2854387377
H                18.1258068092       20.4144514001       73.0585465055
H                17.5818740758       20.9034528595       74.6744690196
H                13.8041821366       21.5826402912       74.0153216918
H                15.1449482823       21.6276228127       75.1861883722
H                15.0073477572       22.8790235970       73.9012812631
N                19.6765965666       23.4999720421       75.6158542758
C                20.2939688897       23.6417500106       76.9162340261
C                19.2980393558       24.3648696113       77.8128011541
O                18.7631901391       25.4071075710       77.4598402900
C                21.5595920901       24.5128385530       76.8082961263
C                22.2049499482       24.7934687572       78.1541456620
C                23.4215014683       25.7834470265       78.0494709258
O                24.2467362046       25.7223904540       78.9813603696
O                23.4541380806       26.5548341040       77.0749870220
H                19.2822641005       24.3642497261       75.2585013820
H                20.5497027459       22.6461108304       77.2875707597
H                22.2773074789       24.0197942146       76.1502675174
H                21.2892789765       25.4611491436       76.3389355144
H                21.4871938444       25.2779958091       78.8235794170
H                22.5530473026       23.8764221924       78.6344703171
N                19.0399882438       23.7720966838       78.9873864506
C                18.4066473069       24.4781750278       80.0835129138
C                19.3642995472       24.4315397218       81.2739807871
O                20.1517291515       23.5093573274       81.4337909028
C                17.0639734639       23.8354371127       80.4831023702
C                15.9026020745       24.4940569619       79.7388558666
C                14.5665512678       23.8287568933       80.0253682505
O                14.2738386996       23.3282001383       81.1006006115
N                13.7060757738       23.8472546866       79.0010055686
H                19.6458106645       23.0205192810       79.3007811348
H                18.2510665493       25.5187776556       79.7840063485
H                17.1051868494       22.7693977142       80.2575536643
H                16.9249580102       23.9490162612       81.5575052505
H                15.8328114003       25.5371198290       80.0632436189
H                16.1095525414       24.4888250865       78.6676693316
H                13.9290538917       24.2993195907       78.1320536667
H                12.7862405156       23.4498356710       79.1117933066
N                19.1612118728       25.4235640571       82.1464872148
C                19.8960559897       25.5101657589       83.3943997162
C                18.9959103409       26.3138146948       84.3312327201
O                18.4883632429       27.3717516491       83.9770559030
C                21.2871256160       26.1257317754       83.1873476323
C                22.0757135025       26.3097758170       84.4933819170
C                23.5435633653       25.9435462991       84.2855307763
C                21.9526189988       27.7459902633       84.9969194388
H                18.6755919863       26.2672002103       81.8493918829
H                20.0274335173       24.4853421625       83.7581764219
H                21.8266694630       25.4598043195       82.5088438189
H                21.1910811138       27.0872239816       82.6779874142
H                21.6685723509       25.6346347286       85.2545055954
H                24.1084158022       26.1040225362       85.1999993763
H                23.6384347018       24.8994073711       83.9954994397
H                23.9785782055       26.5573606871       83.4990675440
H                22.4984953677       27.8720955847       85.9278120117
H                22.3621258600       28.4411381568       84.2662512819
H                20.9132911052       28.0224645205       85.1614795126
N                18.7109758984       25.7240807966       85.4935933449
C                17.7859512336       26.2852973091       86.4581826244
C                18.4833207074       26.3599743182       87.8202712369
O                19.0183719216       25.3703791543       88.2983818848
C                16.5547230104       25.3712660425       86.5889860227
C                15.8101865148       25.2201304218       85.2630948471
C                14.7086075653       24.1586269146       85.3324754758
C                13.9954108898       24.1105156457       83.9853469633
N                13.2420303740       22.8466219307       83.7647562982
H                19.2069812503       24.8958398926       85.7920848078
H                17.5174079582       27.2807585737       86.0972836346
H                16.9065778690       24.4005169993       86.9449629082
H                15.9027075564       25.8069418324       87.3444200427
H                15.3843913129       26.1818166519       84.9744471760
H                16.5275165508       24.9417702608       84.4889841727
H                15.1712283944       23.1960490578       85.5517312037
H                14.0151165091       24.4111718116       86.1319737623
H                13.3095917537       24.9511472294       83.8897485403
H                14.7312394508       24.1850399237       83.1843627886
H                13.0348119566       22.7929782677       82.7525235758
H                13.8368075848       22.0394460243       83.9984673324
H                12.3794420467       22.8080966493       84.3244269844
N                18.3548603071       27.5328785800       88.4538364477
C                18.9554945364       27.7609028568       89.7522512262
C                17.9007520674       28.4295616364       90.6380153072
O                17.4009701119       29.5109022132       90.3609011711
C                20.2057889427       28.6537126408       89.6497076173
C                20.7691023122       28.9375383130       91.0402234591
C                21.2524656248       27.9799529206       88.7683985123
H                18.1067262447       28.3780839237       87.9483720856
H                19.2359130440       26.7773254617       90.1429837437
H                19.8995051826       29.5941610051       89.1782970211
H                21.6450130836       29.5756603759       90.9539935107
H                20.0344355240       29.4488204437       91.6595073137
H                21.0632547923       28.0096048838       91.5268280538
H                22.1253758851       28.6198014440       88.6702218587
H                21.5604731484       27.0289921865       89.1984085073
H                20.8573021026       27.8006159361       87.7713357387
N                17.5376892517       27.7116667162       91.7079498180
C                16.6131203508       28.1890634244       92.7180730625
C                17.3883521760       28.2583823386       94.0355435650
O                18.0887323454       27.3244551076       94.3971742900
C                15.4299099462       27.2195284897       92.8529354529
C                14.6923906349       27.0805734795       91.5216920903
C                13.5265740738       26.0956226410       91.6170524610
C                12.7530620129       26.1014156534       90.3036455300
N                11.6805507704       25.0663092083       90.3052864448
H                18.0427121978       26.8742294371       91.9642584275
H                16.2690315666       29.1753402683       92.4007143276
H                15.8198818612       26.2537372640       93.1832567160
H                14.7607168903       27.6054249016       93.6233654212
H                14.3313972288       28.0617741241       91.2067134048
H                15.4022459324       26.7382735667       90.7670385723
H                13.9236537118       25.1019324717       91.8299738537
H                12.8774374079       26.3966802392       92.4397659799
H                12.3116611592       27.0868987430       90.1537642090
H                13.4374299986       25.9049076458       89.4793035331
H                11.1278638964       25.1195975346       89.4374493369
H                12.0987929776       24.1277434507       90.3845949901
H                11.0568406690       25.2126171020       91.1124576537
N                17.2348268361       29.3828488147       94.7501943407
C                17.9157329709       29.5751481436       96.0119342348
C                17.1078956707       30.4841144200       96.9304438583
O                16.4991783895       31.4594738374       96.5099162029
C                19.2936571090       30.2544189097       95.7896604033
C                19.9453449064       30.5539693340       97.1078287916
C                20.7281077072       29.5995565502       97.7433234347
C                19.6956291744       31.7587225923       97.7545925709
C                21.2288209749       29.8318017188       99.0126453262
C                20.1844015846       31.9853174950       99.0281029889
C                20.9443969769       31.0185062631       99.6645776050
H                16.6740264095       30.1613699046       94.4213318952
H                18.0623805430       28.5926337404       96.4698758025
H                19.9067915729       29.5789342800       95.1928303331
H                19.1223873995       31.1752278884       95.2294222004
H                20.9389383345       28.6694127031       97.2383547009
H                19.0919803847       32.5131262541       97.2653817278
H                21.8306011174       29.0819930132       99.5013411305
H                19.9585328376       32.9092726678       99.5397148776
H                21.2886815260       31.2000604459      100.6703963594
N                15.4706499609       33.3748233976       91.9397029088
C                15.1329485067       32.3981222579       90.9209670900
C                15.8238807540       32.8144833567       89.6251345989
O                15.7330103658       33.9740373715       89.2269643560
C                13.6147290905       32.3542030364       90.7064194284
C                13.1664565646       31.1273555335       89.9279596999
O                13.6828457144       30.0273800191       90.0540830306
N                12.1124924596       31.3495649877       89.1350470305
H                15.4777723723       34.3556080216       91.6734025617
H                15.4877003025       31.4160280738       91.2492461042
H                13.1326739206       32.3201238794       91.6866015121
H                13.2853086112       33.2542151708       90.1890781066
H                11.7617124832       30.6057577661       88.5540860894
H                11.7328237426       32.2827368933       89.0391177668
N                16.4886908077       31.8724625482       88.9540976463
C                17.2756532843       32.2489347992       87.7870140789
C                17.4129825859       31.0672819533       86.8292764548
O                18.1371972879       30.1139032552       87.0787889545
C                18.6641336568       32.7200311077       88.2237767280
H                16.6921344446       30.9722494457       89.3825399170
H                16.7451399836       33.0627650755       87.2846640773
H                19.2363056555       33.0623320373       87.3641159259
H                18.5566535532       33.5379724405       88.9320429744
H                19.1946560890       31.8985904311       88.7002455286
N                16.6734214767       31.1523359909       85.7154811210
C                16.7462277287       30.1435034360       84.6835342217
C                17.2796800058       30.7170105821       83.3666395077
O                17.2102214417       31.9077063356       83.0710019175
C                15.3776020618       29.4542378436       84.4633443478
C                14.8482826497       28.8976152676       85.7845188335
C                14.3581129882       30.4083230900       83.8451857574
H                16.2505956260       32.0351502015       85.4601992973
H                17.4733394321       29.4013304982       85.0326764018
H                15.5625807332       28.6367895560       83.7599777711
H                13.9073534941       28.3862331929       85.6099829865
H                15.5694413039       28.2168671299       86.2241032727
H                14.6808440614       29.7086610919       86.4879552982
H                13.4188963046       29.8966057986       83.6532784610
H                14.1586494536       31.2455142705       84.5110182783
H                14.7106672002       30.8174495367       82.8985506514
N                17.7745322515       29.7621016204       82.5672212786
C                18.4255414169       30.0108194528       81.3048336436
C                18.0585198427       28.9366727916       80.2903059456
O                17.9684538584       27.7520854724       80.5942015698
C                19.9620993490       29.9221510282       81.4582331691
C                20.5409857484       31.1736099182       82.0196328742
N                21.3147274601       31.1884186492       83.1434636535
C                20.4330745802       32.4452213938       81.5217361614
C                21.6609459819       32.4394931973       83.3124963869
N                21.1576746619       33.2434797004       82.3550255784
H                17.9468014536       28.8355089912       82.9549278046
H                18.1389273629       31.0020368787       80.9441216792
H                20.2056104009       29.0905026905       82.1210720353
H                20.4080986516       29.7221472435       80.4792779492
H                19.9092009636       32.8330934831       80.6715520463
H                22.2877318165       32.7934468341       84.1051939424
H                21.2090987070       34.2574582931       82.2863270388
N                17.9442208047       29.3778873411       79.0335566717
C                17.8145203133       28.4470290852       77.9378022886
C                18.5448301780       28.9933163106       76.7164812197
O                18.4710867884       30.1759629455       76.4058316042
C                16.3364276798       28.1680973632       77.5584456758
O                15.6487711184       29.2886397051       77.0727196883
H                17.9126902472       30.3734128946       78.8420549396
H                18.2535406454       27.5055411369       78.2834842552
H                16.3086507799       27.3473195566       76.8297869767
H                15.8062203918       27.8672253874       78.4630536454
H                16.0161461324       29.5470880127       76.2183499068
N                16.9391989464       32.7213395710       76.4906951297
C                16.0978719643       33.2650625769       77.5324983570
C                16.9100664000       33.3406695807       78.8270057609
O                17.6083036037       32.3980376701       79.1876483920
C                14.8535064713       32.4078908225       77.8063652099
O                13.9087087856       32.6358439814       76.7878592260
H                17.4145727754       31.8460703605       76.6949558637
H                15.7751193847       34.2604069819       77.2174750539
H                15.1428802913       31.3508215884       77.8468247616
H                14.4387056271       32.6921701736       78.7859022814
H                13.1506332123       32.0601017149       76.9469009407
N                16.7987832449       34.4896831975       79.4914474679
C                17.4914655205       34.7742935060       80.7346906986
C                16.4941229798       35.5096657397       81.6328374897
O                16.0126111820       36.5846718535       81.2795938053
C                18.7079239538       35.6559851283       80.4876710863
C                19.3532346322       36.0240950405       81.8611246233
O                18.5674211740       36.3386702853       82.7699781559
O                20.5983174441       35.9702636835       81.9213186976
H                16.2498146326       35.2477163995       79.1008121803
H                17.7887095106       33.8241379482       81.1897814536
H                19.4372934324       35.1584261809       79.8461779854
H                18.3731949211       36.5892854069       80.0286706454
N                16.0614536927       34.7987920478       82.6735680504
C                15.0281575202       35.2572623796       83.5759815986
C                15.5286862006       35.1241138124       85.0094450850
O                15.8849090610       34.0419343260       85.4652327497
C                13.7629099316       34.4143246427       83.3554481261
C                13.0557216709       34.8430775631       82.0739773294
C                12.1603654492       33.7025127860       81.5197669937
O                12.7248593219       32.7065286238       81.0569711681
O                10.9136424139       33.8749745222       81.5704992479
H                16.4843861644       33.9049211425       82.8904868192
H                14.8317702945       36.3069711734       83.3444880117
H                14.0587423804       33.3661482268       83.2747894161
H                13.0982202680       34.5171563445       84.2142141110
H                12.4802725864       35.7471418646       82.2711108943
H                13.8061749556       35.0515287607       81.3070983739
H                19.5428561099       21.6125585767       71.8106668490
H                17.0630734722       30.2919461882       97.9107817292
H                14.8798372036       33.3196580638       92.6163838319
H                19.0982778937       28.3825532685       76.1502090832
H                16.4436077096       32.5630701627       75.7562973354
H                15.5721128626       35.9294142430       85.6007194219
