600
Properties=species:S:1:pos:R:3 pbc="F F F"
N      43.26000000      38.71300000      48.86400000 
C      42.49000000      37.66900000      48.11900000 
C      41.51100000      36.97200000      48.98500000 
O      41.87400000      36.75000000      50.19900000 
C      43.46900000      36.72800000      47.46100000 
C      44.28500000      37.34400000      46.38400000 
C      45.26000000      36.43400000      45.78000000 
N      46.07900000      37.02600000      44.77600000 
C      47.03000000      36.51400000      44.13500000 
N      47.72000000      37.19800000      43.19200000 
N      47.46200000      35.27300000      44.38100000 
H      43.80100000      38.28400000      49.63800000 
H      41.95900000      38.26300000      47.35600000 
H      44.03800000      36.21700000      48.23900000 
H      42.82600000      35.92500000      46.96800000 
H      43.71900000      37.79200000      45.69000000 
H      44.87300000      38.18000000      46.90900000 
H      45.94400000      36.00700000      46.55000000 
H      44.73200000      35.56400000      45.35700000 
H      45.67400000      37.92100000      44.39100000 
H      47.37900000      38.10900000      42.97300000 
H      48.45200000      36.80900000      42.72800000 
H      46.88700000      34.69000000      45.08400000 
H      48.12900000      34.86200000      43.93200000 
N      36.18500000      31.10700000      48.29000000 
C      34.81500000      30.82500000      48.55400000 
C      34.65700000      29.38900000      48.20800000 
O      35.35700000      28.87900000      47.26400000 
C      33.86400000      31.64800000      47.70300000 
C      34.34900000      31.81000000      46.34300000 
C      33.24600000      32.00400000      45.32300000 
N      32.98200000      33.36200000      44.83800000 
C      32.87900000      33.74400000      43.68600000 
N      32.66000000      32.87000000      42.71300000 
N      32.95600000      35.03900000      43.29300000 
H      36.58700000      30.75000000      47.63600000 
H      34.58000000      30.94100000      49.65200000 
H      32.89500000      31.30200000      47.78600000 
H      33.81600000      32.70100000      48.23700000 
H      35.05700000      32.59400000      46.21000000 
H      34.87100000      30.90900000      46.06300000 
H      33.65400000      31.51900000      44.35400000 
H      32.39900000      31.51900000      45.55900000 
H      32.98900000      34.08900000      45.64500000 
H      32.45300000      31.95400000      42.91900000 
H      33.06200000      33.03400000      41.79900000 
H      33.27100000      35.76400000      44.01900000 
H      32.77800000      35.31000000      42.41600000 
N      30.72000000      34.35800000      36.01500000 
C      32.00500000      33.62800000      35.92200000 
C      31.85400000      32.46800000      34.88500000 
O      32.79200000      32.26700000      34.11100000 
C      32.40500000      33.07200000      37.25800000 
H      30.30500000      34.33500000      36.91000000 
H      32.74500000      34.27700000      35.51100000 
H      33.36700000      32.56400000      37.18700000 
H      32.49500000      33.87300000      37.94700000 
H      31.64700000      32.38300000      37.63400000 
N      31.84800000      33.94500000      31.36000000 
C      33.20400000      34.32700000      31.02600000 
C      33.92200000      33.15800000      30.33900000 
O      34.81700000      33.40900000      29.44100000 
C      34.01900000      34.69900000      32.27900000 
C      35.31500000      35.25500000      31.85600000 
O      36.37400000      34.49500000      32.26700000 
O      35.47900000      36.28500000      31.26600000 
H      31.60900000      34.15300000      32.36100000 
H      33.20000000      35.15100000      30.29100000 
H      33.44100000      35.53000000      32.72500000 
H      34.02300000      33.89200000      32.90700000 
N      33.62200000      32.00900000      30.74600000 
C      34.30400000      30.73300000      30.30700000 
C      33.38500000      29.80100000      29.67600000 
O      33.60300000      28.62600000      29.76700000 
C      35.08300000      30.11100000      31.47300000 
O      34.16400000      29.45900000      32.35400000 
H      32.83900000      31.82400000      31.45700000 
H      35.02600000      31.11600000      29.59300000 
H      35.73800000      29.43000000      31.05700000 
H      35.52100000      30.82900000      32.02400000 
H      33.74900000      28.65600000      31.86800000 
N      41.50600000      28.46100000      24.31900000 
C      42.93500000      28.51500000      24.64100000 
C      42.97900000      29.52000000      25.79300000 
O      42.48700000      30.58400000      25.64000000 
C      43.69400000      28.98400000      23.47100000 
C      45.19800000      28.39100000      23.52100000 
C      45.15600000      26.95600000      23.40000000 
C      46.04800000      28.98000000      22.36600000 
H      40.91600000      29.16300000      24.54300000 
H      43.24000000      27.55300000      24.90400000 
H      43.34200000      28.65000000      22.52600000 
H      43.82400000      30.04200000      23.42700000 
H      45.62600000      28.65800000      24.44200000 
H      46.17000000      26.48600000      23.17600000 
H      44.77900000      26.41600000      24.26400000 
H      44.53000000      26.62100000      22.54500000 
H      47.02900000      28.68500000      22.44300000 
H      45.65200000      28.70900000      21.46300000 
H      46.00600000      30.09700000      22.42100000 
N      43.54700000      28.99400000      26.84900000 
C      43.64100000      29.65900000      28.14600000 
C      45.09700000      29.71800000      28.49700000 
O      45.92300000      28.89500000      28.10900000 
C      42.96500000      28.82200000      29.20500000 
C      41.42900000      28.90000000      29.26900000 
C      40.79700000      28.75500000      27.93000000 
C      40.97500000      27.72400000      30.16500000 
H      43.88200000      27.99100000      26.86100000 
H      43.18200000      30.60400000      28.07300000 
H      43.25300000      27.80800000      29.02000000 
H      43.35800000      29.07800000      30.17400000 
H      41.20100000      29.82700000      29.73100000 
H      39.74700000      28.70700000      28.04000000 
H      40.99200000      29.71300000      27.29500000 
H      41.09400000      27.97700000      27.40600000 
H      39.89200000      27.84400000      30.33600000 
H      41.10600000      26.82000000      29.65400000 
H      41.46600000      27.71200000      31.10000000 
N      45.46100000      30.79400000      29.30000000 
C      46.82500000      30.88900000      29.68500000 
C      46.98700000      30.41500000      31.10900000 
O      46.32900000      30.87600000      32.01900000 
C      47.28600000      32.39700000      29.54700000 
C      46.54300000      33.34800000      30.43900000 
C      48.79800000      32.47200000      29.81000000 
H      44.79700000      31.41900000      29.55300000 
H      47.45000000      30.32100000      29.08700000 
H      47.10800000      32.63200000      28.51100000 
H      46.77300000      34.38500000      30.12400000 
H      45.48000000      33.27500000      30.34700000 
H      46.80800000      33.25300000      31.47100000 
H      49.14800000      33.47000000      29.59200000 
H      49.02000000      32.27400000      30.86100000 
H      49.34100000      31.79800000      29.19900000 
N      47.92300000      29.50300000      31.36900000 
C      48.30000000      29.07400000      32.72300000 
C      49.30800000      29.94800000      33.26500000 
O      50.51800000      29.73300000      33.03500000 
C      48.52800000      27.66300000      32.86400000 
C      49.52600000      27.14000000      31.82200000 
C      48.92200000      27.31800000      34.22600000 
H      48.46500000      29.19600000      30.53800000 
H      47.30900000      29.31500000      33.25800000 
H      47.57900000      27.13300000      32.62900000 
H      49.68700000      26.08300000      32.00100000 
H      49.21700000      27.17700000      30.85300000 
H      50.41200000      27.65200000      31.92700000 
H      48.97700000      26.28600000      34.42700000 
H      49.91200000      27.68600000      34.45100000 
H      48.13000000      27.71000000      34.96500000 
N      48.82500000      31.04800000      33.94300000 
C      49.68700000      31.94600000      34.69900000 
C      49.22300000      31.87500000      36.08300000 
O      49.17000000      30.86100000      36.71000000 
C      49.75800000      33.29300000      34.04300000 
C      50.79600000      34.14500000      34.69100000 
O      51.94900000      33.84900000      34.60200000 
O      50.31000000      35.22400000      35.39600000 
H      47.85200000      31.20500000      33.93800000 
H      50.71400000      31.48700000      34.65600000 
H      50.07800000      33.17600000      33.00200000 
H      48.74800000      33.76200000      34.05700000 
N      48.75700000      33.07900000      36.63400000 
C      48.12300000      33.13900000      37.91700000 
C      46.57300000      32.95600000      37.71400000 
O      45.91800000      32.57200000      38.71500000 
C      48.37000000      34.44600000      38.59500000 
C      47.92100000      35.63700000      37.78100000 
C      48.07800000      36.94000000      38.57200000 
O      48.49800000      36.92900000      39.83900000 
O      47.88500000      37.99000000      37.95100000 
H      48.97100000      33.90000000      36.16600000 
H      48.45800000      32.28100000      38.47500000 
H      47.91800000      34.37500000      39.55400000 
H      49.42400000      34.47600000      38.75600000 
H      48.39200000      35.72900000      36.88300000 
H      46.81100000      35.56400000      37.65700000 
N      46.09100000      33.24800000      36.60000000 
C      44.64900000      33.31200000      36.50000000 
C      44.01700000      31.98600000      36.31100000 
O      42.76000000      31.87400000      36.76400000 
C      44.25600000      34.25300000      35.27200000 
O      44.91600000      33.68000000      34.19600000 
C      44.70100000      35.73200000      35.53500000 
H      46.63600000      33.46000000      35.72200000 
H      44.25400000      33.77900000      37.31000000 
H      43.20900000      34.25500000      35.12700000 
H      44.97300000      34.33800000      33.36700000 
H      44.38100000      36.32900000      34.76400000 
H      44.36000000      36.03800000      36.45100000 
H      45.83600000      35.74300000      35.57400000 
N      44.57100000      31.02700000      35.71400000 
C      43.96600000      29.75900000      35.66300000 
C      43.76300000      29.14700000      37.11800000 
O      42.76100000      28.58400000      37.31400000 
C      44.76800000      28.76700000      34.76400000 
C      44.00500000      28.15800000      33.59900000 
C      44.81900000      27.50900000      32.68900000 
C      42.77600000      27.34500000      34.06900000 
H      45.49900000      31.16400000      35.36200000 
H      43.02800000      29.84200000      35.24300000 
H      45.65800000      29.27400000      34.42100000 
H      45.13200000      27.91700000      35.35400000 
H      43.57100000      29.12500000      33.05300000 
H      44.26900000      27.07600000      31.79600000 
H      45.63500000      28.09200000      32.22000000 
H      45.31400000      26.63500000      33.12500000 
H      42.23300000      27.06400000      33.21800000 
H      43.20000000      26.48700000      34.55100000 
H      42.17500000      27.90600000      34.74400000 
N      44.74900000      29.41700000      37.90400000 
C      44.61600000      28.85100000      39.24500000 
C      43.47700000      29.57000000      39.98200000 
O      42.96100000      28.98400000      40.98400000 
C      45.94400000      28.97800000      39.99600000 
C      46.99200000      27.93200000      39.72600000 
C      46.47100000      26.60200000      40.18000000 
C      47.34000000      27.88700000      38.28000000 
H      45.53700000      29.89900000      37.67300000 
H      44.34400000      27.85100000      39.21700000 
H      46.33800000      30.00900000      39.82800000 
H      45.69000000      28.96400000      41.10000000 
H      47.81700000      28.20100000      40.26800000 
H      47.31500000      25.80900000      40.03600000 
H      46.28500000      26.57600000      41.27800000 
H      45.64000000      26.22100000      39.68200000 
H      48.19200000      27.20200000      38.11500000 
H      46.51100000      27.52400000      37.64400000 
H      47.63700000      28.86500000      37.88600000 
N      43.15100000      30.70000000      39.59600000 
C      42.00300000      31.47800000      40.16000000 
C      40.79200000      31.21500000      39.49400000 
O      39.71000000      31.87500000      39.70800000 
C      42.30100000      32.96300000      40.27200000 
C      43.55900000      33.24200000      41.12900000 
C      43.69800000      34.68400000      41.38000000 
O      43.20600000      35.57200000      40.63100000 
O      44.44400000      34.98600000      42.44100000 
H      43.62700000      31.17000000      38.84900000 
H      41.89300000      31.08000000      41.17500000 
H      42.46100000      33.37200000      39.17000000 
H      41.46500000      33.45200000      40.67600000 
H      43.51600000      32.71100000      41.98900000 
H      44.42600000      32.92400000      40.57000000 
N      40.66900000      30.23900000      38.55600000 
C      39.54600000      29.85200000      37.84300000 
C      39.00100000      30.99300000      36.99400000 
O      37.80400000      31.06800000      36.71200000 
C      38.47200000      29.33700000      38.69100000 
C      38.74100000      28.01200000      39.31300000 
O      38.24200000      26.92000000      38.77500000 
N      39.55000000      27.93000000      40.35200000 
H      41.60000000      29.73500000      38.30400000 
H      39.85800000      29.06600000      37.13100000 
H      38.26700000      30.03100000      39.51000000 
H      37.54100000      29.23500000      38.15800000 
H      39.77500000      27.09800000      40.76000000 
H      39.93700000      28.73800000      40.76300000 
N      39.92400000      31.82500000      36.47800000 
C      39.43200000      32.87800000      35.60200000 
C      40.48400000      33.31200000      34.66000000 
O      40.85600000      34.47300000      34.55100000 
C      38.81000000      33.98200000      36.37100000 
C      37.49400000      34.44700000      35.85300000 
O      37.18200000      35.68100000      35.56200000 
N      36.52500000      33.48100000      35.73800000 
H      40.89200000      31.77400000      36.68800000 
H      38.66100000      32.45900000      34.98100000 
H      38.67200000      33.71300000      37.40200000 
H      39.44100000      34.88100000      36.37600000 
H      35.65900000      33.70000000      35.38200000 
H      36.78000000      32.56300000      36.02100000 
N      41.05500000      32.47500000      33.82400000 
C      41.99200000      32.71600000      32.82900000 
C      41.28100000      33.42100000      31.69400000 
O      40.12400000      33.51900000      31.53900000 
C      42.49400000      31.42500000      32.39600000 
C      41.31100000      30.45100000      32.57100000 
C      40.67200000      30.96400000      33.83300000 
H      42.74800000      33.34900000      33.21400000 
H      42.90000000      31.40800000      31.40800000 
H      43.30000000      31.08300000      33.04600000 
H      40.60400000      30.67800000      31.71500000 
H      41.52800000      29.48700000      32.57500000 
H      39.63900000      30.85900000      33.87200000 
H      41.10500000      30.47500000      34.68800000 
N      42.26100000      33.92600000      30.79500000 
C      41.77400000      34.47100000      29.50900000 
C      41.44800000      33.31200000      28.55300000 
O      41.60300000      32.12300000      28.86100000 
C      42.88800000      35.25000000      28.89100000 
O      43.92400000      34.33200000      28.69800000 
C      43.32800000      36.39900000      29.79000000 
H      43.14400000      33.73700000      30.85800000 
H      40.92300000      35.03100000      29.64000000 
H      42.57800000      35.66800000      28.00200000 
H      44.79500000      34.73200000      28.40300000 
H      44.16200000      36.94500000      29.35500000 
H      42.55000000      37.04800000      30.00900000 
H      43.71800000      35.96700000      30.81600000 
N      41.02100000      33.70000000      27.36200000 
C      40.63700000      32.72300000      26.27800000 
C      41.17600000      33.15400000      25.00100000 
O      40.67400000      32.80700000      23.91800000 
C      39.18200000      32.42300000      26.31600000 
C      38.15500000      33.66000000      26.43900000 
C      38.00400000      34.16700000      27.76600000 
C      38.54700000      34.73200000      25.37000000 
H      40.81700000      34.64400000      27.20900000 
H      41.15900000      31.87600000      26.54600000 
H      38.97500000      31.88200000      25.39400000 
H      38.94100000      31.75800000      27.13600000 
H      37.23100000      33.21700000      26.10800000 
H      37.15100000      34.74500000      27.87800000 
H      37.95000000      33.34000000      28.54600000 
H      38.87200000      34.80900000      28.08200000 
H      37.78700000      35.51700000      25.47700000 
H      39.47000000      35.13800000      25.61000000 
H      38.51000000      34.36500000      24.39600000 
N      42.28900000      33.93800000      24.99100000 
C      42.88700000      34.42600000      23.84000000 
C      43.32100000      33.32100000      22.86400000 
O      44.09800000      32.44300000      23.21000000 
C      44.19900000      35.18900000      24.21800000 
C      44.92800000      35.78500000      22.99600000 
C      44.22700000      37.02000000      22.56600000 
C      46.39400000      36.05400000      23.37000000 
H      42.70700000      34.16600000      25.87200000 
H      42.21100000      35.08700000      23.29500000 
H      43.90700000      35.93700000      24.87200000 
H      44.76100000      34.48800000      24.69300000 
H      44.93000000      35.06700000      22.23200000 
H      44.82000000      37.46100000      21.64400000 
H      43.27100000      36.89700000      22.25900000 
H      44.31700000      37.80200000      23.31900000 
H      46.90700000      36.40700000      22.62700000 
H      46.41900000      36.74400000      24.23500000 
H      46.86500000      35.09500000      23.75300000 
N      52.20000000      37.05700000      24.67800000 
C      52.27600000      36.53500000      25.95800000 
C      52.36800000      35.05900000      26.02500000 
O      51.77700000      34.46200000      26.99000000 
H      52.88500000      36.87300000      23.99800000 
H      53.16800000      36.91400000      26.49900000 
H      51.41600000      36.86800000      26.54300000 
N      54.06500000      30.45200000      30.62400000 
C      52.67900000      30.72600000      30.41400000 
C      52.26600000      29.85000000      29.23100000 
O      51.80800000      30.42100000      28.21200000 
C      52.42200000      32.15300000      29.99800000 
C      52.68100000      33.06200000      31.36100000 
C      52.29500000      34.44800000      30.97700000 
N      52.22500000      35.22500000      32.23700000 
C      51.86400000      36.53500000      32.25700000 
N      51.82300000      37.23800000      31.21600000 
N      51.58900000      37.09900000      33.40700000 
H      54.70700000      30.43300000      29.84300000 
H      52.16500000      30.40400000      31.24500000 
H      53.07300000      32.46700000      29.30300000 
H      51.32100000      32.28800000      29.77800000 
H      52.11600000      32.72500000      32.08800000 
H      53.68200000      33.04900000      31.59100000 
H      52.92500000      34.90000000      30.27700000 
H      51.26300000      34.49000000      30.54400000 
H      52.37600000      34.73400000      33.05300000 
H      52.14100000      36.89300000      30.32200000 
H      51.45600000      38.23400000      31.26300000 
H      51.40200000      36.46600000      34.25900000 
H      51.37300000      37.98100000      33.54200000 
N      52.18400000      28.52800000      29.34900000 
C      51.72000000      27.71500000      28.33100000 
C      50.21300000      27.77000000      28.09700000 
O      49.44300000      28.52300000      28.84300000 
C      52.22900000      26.28600000      28.58200000 
C      52.37200000      26.33900000      30.11800000 
C      52.73800000      27.73200000      30.42000000 
H      52.09400000      28.03700000      27.43400000 
H      51.49500000      25.53300000      28.27600000 
H      53.16900000      26.18800000      28.21700000 
H      51.50700000      26.18700000      30.58000000 
H      53.08300000      25.58000000      30.51000000 
H      52.43800000      28.13200000      31.46100000 
H      53.73500000      27.82200000      30.44900000 
N      49.78200000      27.01200000      27.04300000 
C      48.47300000      27.18800000      26.47000000 
C      47.62400000      25.90000000      26.80900000 
O      48.18400000      24.77900000      26.75900000 
C      48.48400000      27.44000000      24.98900000 
C      49.66200000      26.66500000      24.27000000 
C      49.20000000      26.35000000      22.86200000 
C      50.90300000      27.48700000      24.19500000 
H      50.38800000      26.47300000      26.61500000 
H      47.95400000      28.02500000      26.98900000 
H      47.57500000      27.14600000      24.57400000 
H      48.66200000      28.50200000      24.83000000 
H      49.82000000      25.75800000      24.72300000 
H      50.02000000      25.87700000      22.29900000 
H      48.41700000      25.75200000      22.80500000 
H      48.97800000      27.26600000      22.32400000 
H      51.68200000      26.97600000      23.74900000 
H      50.78700000      28.39300000      23.70100000 
H      51.23600000      27.81100000      25.17400000 
N      46.41500000      26.17700000      27.13500000 
C      45.46900000      25.13500000      27.61300000 
C      44.17100000      25.21200000      26.93400000 
O      43.71700000      26.33400000      26.54800000 
C      45.26400000      25.48500000      29.18700000 
C      44.29500000      24.54500000      29.75500000 
C      46.54300000      25.60000000      29.85600000 
H      46.04900000      27.17000000      27.19800000 
H      45.94800000      24.19700000      27.57100000 
H      44.77300000      26.48400000      29.13500000 
H      44.22700000      24.73900000      30.85400000 
H      43.34700000      24.55400000      29.36000000 
H      44.67400000      23.51300000      29.70100000 
H      46.36800000      25.82400000      30.90200000 
H      47.08100000      24.66100000      29.88100000 
H      47.20800000      26.32700000      29.47300000 
N      40.27300000      21.19700000      32.03300000 
C      40.95900000      21.59900000      30.87400000 
C      42.24300000      20.73700000      30.67000000 
O      42.65900000      20.11100000      31.53900000 
C      41.30900000      23.07700000      30.83400000 
O      42.34300000      23.21000000      31.84800000 
C      40.10100000      23.94300000      31.26200000 
H      40.81800000      21.08900000      32.87700000 
H      40.32000000      21.42400000      30.01300000 
H      41.65700000      23.36500000      29.96000000 
H      42.51100000      24.09400000      32.12400000 
H      40.36300000      24.97700000      31.18000000 
H      39.24500000      23.66300000      30.66300000 
H      39.86800000      23.72700000      32.32500000 
N      46.08000000      20.58700000      28.66500000 
C      47.06100000      21.54200000      28.14300000 
C      47.48500000      21.13300000      26.78100000 
O      47.53800000      19.92200000      26.38600000 
C      48.28600000      21.53300000      29.07500000 
C      48.08700000      22.16400000      30.40900000 
C      46.89900000      22.05600000      31.11100000 
C      49.09800000      22.99100000      30.94300000 
C      46.82800000      22.62800000      32.40600000 
C      48.94700000      23.54300000      32.17300000 
C      47.81800000      23.37900000      32.90000000 
H      46.36100000      19.82400000      29.24600000 
H      46.64100000      22.45000000      28.15500000 
H      48.64200000      20.54400000      29.17600000 
H      49.09200000      22.04800000      28.54500000 
H      46.10900000      21.54500000      30.70000000 
H      49.99700000      23.12000000      30.41100000 
H      45.85600000      22.51100000      32.89900000 
H      49.76300000      24.06100000      32.62000000 
H      47.69500000      23.80100000      33.88200000 
N      44.36300000      20.24900000      33.97100000 
C      43.92500000      20.66900000      35.32300000 
C      42.42600000      20.50800000      35.46800000 
O      41.68500000      20.96400000      34.66800000 
C      44.38800000      22.09300000      35.66800000 
O      44.11700000      22.26600000      37.05100000 
C      43.79800000      23.18400000      34.80600000 
H      43.69000000      20.31100000      33.30600000 
H      44.43000000      20.06300000      36.01000000 
H      45.43100000      22.11300000      35.48100000 
H      44.27900000      23.14700000      37.33300000 
H      44.20400000      24.10200000      35.03400000 
H      43.83800000      22.97900000      33.75900000 
H      42.67500000      23.25200000      35.06700000 
N      39.43800000      21.90900000      37.32300000 
C      39.09800000      23.14500000      37.97200000 
C      37.78200000      22.99100000      38.55700000 
O      37.31900000      21.87300000      38.97700000 
C      39.34200000      24.33900000      37.10100000 
C      38.45200000      24.40100000      35.88500000 
C      38.56600000      25.73800000      35.16000000 
O      38.74900000      25.75700000      33.98100000 
N      38.48900000      26.87500000      35.89800000 
H      38.82900000      21.61100000      36.55500000 
H      39.80300000      23.17300000      38.81800000 
H      39.27600000      25.27300000      37.77600000 
H      40.40100000      24.29600000      36.78400000 
H      38.61700000      23.64400000      35.22900000 
H      37.40600000      24.37700000      36.25300000 
H      38.33300000      26.85300000      36.87900000 
H      38.56500000      27.69400000      35.46200000 
N      37.00900000      24.12200000      38.75400000 
C      35.70300000      23.97200000      39.29900000 
C      34.81000000      24.98300000      38.80100000 
O      35.02700000      25.71100000      37.87000000 
C      35.77200000      23.92000000      40.85200000 
C      34.82000000      22.84700000      41.35100000 
O      33.80200000      23.11800000      41.97600000 
N      35.08700000      21.54500000      40.98100000 
H      37.36000000      25.02400000      38.56100000 
H      35.33200000      23.05400000      38.93700000 
H      36.72600000      23.60400000      41.12900000 
H      35.52700000      24.76400000      41.29300000 
H      34.52200000      20.86400000      41.20800000 
H      35.89800000      21.40900000      40.40300000 
N      33.43500000      27.37600000      40.71200000 
C      33.52300000      28.43600000      41.70000000 
C      34.95500000      28.97100000      41.65100000 
O      35.91200000      28.32200000      41.76500000 
C      33.29500000      27.88500000      43.08700000 
O      32.00400000      27.28700000      43.03300000 
C      33.39500000      28.94200000      44.13000000 
H      34.21100000      26.64800000      40.82000000 
H      32.79100000      29.16000000      41.47500000 
H      34.04900000      27.11300000      43.28100000 
H      31.87000000      26.66500000      43.74800000 
H      33.20900000      28.48000000      45.16900000 
H      34.34300000      29.46300000      44.17000000 
H      32.60100000      29.61600000      43.98000000 
N      34.94700000      30.38600000      41.29100000 
C      36.29400000      31.02300000      41.15700000 
C      36.47300000      31.79900000      42.44100000 
O      35.82400000      31.62600000      43.47400000 
C      36.32300000      31.88200000      39.95900000 
C      35.38500000      32.98800000      39.91200000 
O      35.60400000      34.01700000      39.20300000 
O      34.24500000      32.87900000      40.61100000 
H      34.24000000      30.87200000      41.18000000 
H      37.04500000      30.27300000      41.14900000 
H      37.29900000      32.23300000      39.75100000 
H      36.05400000      31.20000000      39.08300000 
N      37.54300000      32.68300000      42.43600000 
C      37.86300000      33.44200000      43.59400000 
C      37.90000000      34.88100000      43.19400000 
O      37.67600000      35.31200000      42.10300000 
C      39.23700000      33.06700000      44.13800000 
C      39.52600000      31.62800000      44.17200000 
C      38.59800000      30.77800000      45.00100000 
C      40.43200000      31.05800000      43.43700000 
C      38.88700000      29.35100000      44.89700000 
C      40.70300000      29.66100000      43.39700000 
C      39.81200000      28.86800000      44.14600000 
O      39.96400000      27.50800000      44.14000000 
H      38.05400000      32.78900000      41.62000000 
H      37.13800000      33.29600000      44.31600000 
H      40.01500000      33.52400000      43.56300000 
H      39.33100000      33.50300000      45.14200000 
H      37.85900000      31.19000000      45.53100000 
H      41.10900000      31.69400000      42.87700000 
H      38.18600000      28.74300000      45.51700000 
H      41.41900000      29.26800000      42.80500000 
H      40.66600000      27.17300000      43.54300000 
N      38.16100000      35.78000000      44.20400000 
C      38.19900000      37.17200000      44.04700000 
C      39.26000000      37.84300000      44.72900000 
O      39.49800000      37.55100000      45.95800000 
C      36.73200000      37.76900000      44.50000000 
C      36.73000000      39.22900000      44.33500000 
C      35.66900000      37.07700000      43.69200000 
H      38.36700000      35.41900000      45.13100000 
H      38.24300000      37.38000000      42.91600000 
H      36.66100000      37.46900000      45.52300000 
H      35.75100000      39.59800000      44.61200000 
H      37.47100000      39.73700000      44.94500000 
H      36.93100000      39.53200000      43.30300000 
H      34.71500000      37.52800000      43.98700000 
H      35.80300000      37.31100000      42.62800000 
H      35.62800000      36.08000000      43.81800000 
N      39.94100000      38.76300000      44.11800000 
C      40.94600000      39.64400000      44.69900000 
C      40.31400000      40.89100000      45.10600000 
O      39.27700000      41.32500000      44.48400000 
C      42.01700000      39.94100000      43.70000000 
C      42.74800000      38.67200000      43.15000000 
C      43.81000000      39.10600000      42.21200000 
O      43.61300000      39.53900000      41.18000000 
O      45.06900000      38.99200000      42.70000000 
H      39.66100000      38.97300000      43.14800000 
H      41.37400000      39.10900000      45.56000000 
H      41.56900000      40.48900000      42.82500000 
H      42.77400000      40.57600000      44.16700000 
H      43.09800000      38.09300000      43.92400000 
H      42.03100000      38.09000000      42.58700000 
H      43.83062774      39.12361732      48.30205926 
H      40.62189015      36.70045124      48.61656420 
H      36.28685932      31.98863424      48.14051505 
H      34.00507905      28.82213376      48.71164844 
H      30.85067633      35.22390014      35.80729674 
H      31.01789047      31.91975701      34.86627897 
H      31.27122397      34.39653600      30.83708064 
H      32.58876140      30.14400297      29.17764966 
H      41.40134968      28.38756750      23.42812628 
H      42.96688346      33.31249244      21.92883739 
H      51.44358876      36.77244700      24.28192977 
H      52.88118490      34.55787366      25.32821190 
H      54.41437505      31.07383743      31.17286727 
H      43.64046313      24.37964927      26.77361639 
H      39.63871040      21.80359552      32.23229521 
H      42.70422289      20.72917479      29.78275020 
H      45.47651263      21.02258203      29.17103487 
H      47.75088332      21.82601280      26.11089604 
H      45.04710317      20.76827638      33.70201136 
H      42.04987815      20.00990123      36.24930018 
H      40.26352068      21.97213728      36.97011291 
H      33.92202077      25.12521877      39.23834050 
H      32.64534207      26.95234884      40.79542687 
H      40.68693711      41.41359793      45.87268724 
