405
Properties=species:S:1:pos:R:3 pbc="F F F"
N      16.44600000      12.28000000      22.13600000 
C      17.62800000      13.03900000      21.74900000 
C      18.78500000      12.08600000      21.46800000 
O      19.55800000      12.32300000      20.52500000 
C      18.06600000      14.12700000      22.77600000 
C      16.90200000      14.89500000      23.43300000 
C      19.05100000      15.09500000      22.09900000 
C      15.99900000      15.71100000      22.50700000 
H      16.04800000      12.40700000      23.03700000 
H      17.42800000      13.51800000      20.80300000 
H      18.58600000      13.62100000      23.58300000 
H      16.28600000      14.21200000      23.99800000 
H      17.35200000      15.56200000      24.16300000 
H      19.32500000      15.88600000      22.78800000 
H      19.95800000      14.59900000      21.78300000 
H      18.60500000      15.55400000      21.22600000 
H      15.21100000      16.18100000      23.08600000 
H      16.54100000      16.49500000      21.99300000 
H      15.52400000      15.08600000      21.76300000 
N      18.90600000      11.06800000      17.89700000 
C      19.29500000      12.12500000      16.98200000 
C      20.77400000      12.10800000      16.64600000 
O      21.17900000      12.80600000      15.70200000 
C      18.93200000      13.48200000      17.58900000 
H      18.65200000      11.33700000      18.82200000 
H      18.77600000      11.98900000      16.04600000 
H      19.15000000      14.27900000      16.89500000 
H      17.87800000      13.49300000      17.81400000 
H      19.47900000      13.65200000      18.50300000 
N      29.66600000      18.69300000      14.30100000 
C      28.70600000      19.16000000      15.29100000 
C      29.41300000      19.79000000      16.48400000 
O      28.94100000      20.80400000      17.03100000 
C      27.79700000      17.98100000      15.72000000 
C      26.56100000      18.41300000      16.48000000 
C      25.42500000      18.82400000      15.78400000 
C      26.52100000      18.39800000      17.87200000 
C      24.28300000      19.22300000      16.46200000 
C      25.37900000      18.80300000      18.55300000 
C      24.25700000      19.21600000      17.85000000 
H      29.65700000      17.72900000      14.03600000 
H      28.09800000      19.94500000      14.86500000 
H      27.49300000      17.46700000      14.81700000 
H      28.37800000      17.28000000      16.30400000 
H      25.43200000      18.82100000      14.70900000 
H      27.38000000      18.06800000      18.42400000 
H      23.42200000      19.54400000      15.91200000 
H      25.36500000      18.79500000      19.62600000 
H      23.37300000      19.52600000      18.37600000 
N      30.47500000      23.45600000      15.76900000 
C      29.42800000      24.43900000      15.58400000 
C      28.68800000      24.75700000      16.87000000 
O      28.15900000      25.88800000      16.98900000 
C      28.47200000      24.00900000      14.45000000 
C      27.69000000      25.16600000      13.81100000 
C      28.59800000      26.14300000      13.04700000 
C      27.86400000      27.41700000      12.62700000 
N      28.82900000      28.57300000      12.60900000 
H      30.35200000      22.53300000      15.40800000 
H      29.90500000      25.36800000      15.32000000 
H      29.07800000      23.53400000      13.69000000 
H      27.78500000      23.25700000      14.81800000 
H      26.95900000      24.74600000      13.12900000 
H      27.13600000      25.70400000      14.57000000 
H      29.43300000      26.42500000      13.67400000 
H      29.01800000      25.65300000      12.17500000 
H      27.42400000      27.34000000      11.64600000 
H      27.10100000      27.68800000      13.33600000 
H      28.39400000      29.41500000      12.26700000 
H      29.13500000      28.73700000      13.56300000 
H      29.63100000      28.38700000      12.02700000 
N      28.63200000      23.85100000      17.84300000 
C      27.92100000      24.06500000      19.11000000 
C      28.34200000      25.37500000      19.76300000 
O      27.49000000      26.13900000      20.24300000 
C      28.18800000      22.83000000      20.00600000 
C      27.39200000      22.66000000      21.32000000 
C      27.81000000      23.60700000      22.45700000 
C      25.87200000      22.68600000      21.10700000 
H      29.01600000      22.94300000      17.67500000 
H      26.86400000      24.16700000      18.91300000 
H      27.97000000      21.96500000      19.38800000 
H      29.24900000      22.79300000      20.22900000 
H      27.64800000      21.65500000      21.64800000 
H      27.35600000      23.28300000      23.38800000 
H      28.88600000      23.60300000      22.59500000 
H      27.49300000      24.62400000      22.27700000 
H      25.36200000      22.39100000      22.01800000 
H      25.52000000      23.67600000      20.84200000 
H      25.57400000      21.99800000      20.32200000 
N      26.60300000      28.77100000      18.24800000 
C      25.17300000      29.02900000      18.16600000 
C      24.78900000      30.12200000      19.15800000 
O      25.29800000      30.13800000      20.29400000 
C      24.37100000      27.71400000      18.39400000 
C      24.32800000      27.24400000      19.85300000 
C      22.94700000      27.82800000      17.83500000 
H      26.92400000      27.92500000      18.66500000 
H      24.96700000      29.36000000      17.16200000 
H      24.90000000      26.96800000      17.80900000 
H      23.92700000      26.23700000      19.89300000 
H      25.30400000      27.22900000      20.31200000 
H      23.68400000      27.88000000      20.44300000 
H      22.43700000      26.87800000      17.93900000 
H      22.37000000      28.56700000      18.37600000 
H      22.94900000      28.09200000      16.78300000 
N      16.33500000      22.39200000      25.80600000 
C      17.26700000      21.54100000      25.09500000 
C      16.67300000      20.91900000      23.85100000 
O      17.39900000      20.73400000      22.85100000 
H      16.22600000      22.19600000      26.77800000 
H      18.14500000      22.08400000      24.78600000 
H      17.57200000      20.75400000      25.76900000 
N      15.38600000      20.58500000      23.84900000 
C      14.72400000      20.07700000      22.65500000 
C      14.67600000      21.12300000      21.54300000 
O      14.81200000      20.77400000      20.35700000 
C      13.31000000      19.61800000      23.01400000 
H      14.87200000      20.61800000      24.70700000 
H      15.28700000      19.25000000      22.25000000 
H      12.79000000      19.31700000      22.11900000 
H      13.35600000      18.77100000      23.68700000 
H      12.75200000      20.41300000      23.48800000 
N      14.45500000      22.39400000      21.89500000 
C      14.46300000      23.49700000      20.94500000 
C      15.88000000      23.78200000      20.45200000 
O      16.09700000      24.00600000      19.24700000 
C      13.87700000      24.77200000      21.58200000 
C      12.39200000      24.65500000      21.95100000 
C      11.89000000      25.92000000      22.63000000 
O      12.49000000      26.28500000      23.70100000 
O      10.92400000      26.54000000      22.11600000 
H      14.39800000      22.62100000      22.86100000 
H      13.89100000      23.21900000      20.07400000 
H      14.45000000      25.01900000      22.46300000 
H      14.00700000      25.58100000      20.87200000 
H      11.79600000      24.47100000      21.06800000 
H      12.24400000      23.83000000      22.63800000 
N      16.85400000      23.80100000      21.36400000 
C      18.23700000      24.09500000      21.02600000 
C      18.79600000      23.05200000      20.07700000 
O      19.54200000      23.38300000      19.13700000 
C      19.07400000      24.13600000      22.31900000 
C      20.52400000      24.61900000      22.14600000 
C      20.59200000      26.11700000      21.82400000 
C      21.31500000      24.30300000      23.42100000 
H      16.62500000      23.66400000      22.32900000 
H      18.29100000      25.03700000      20.50300000 
H      18.56900000      24.78900000      23.02100000 
H      19.07300000      23.14400000      22.75300000 
H      20.98500000      24.07200000      21.32900000 
H      21.62300000      26.43600000      21.72500000 
H      20.08300000      26.36000000      20.89900000 
H      20.13900000      26.69700000      22.62000000 
H      22.33600000      24.65700000      23.34100000 
H      20.86300000      24.78300000      24.28300000 
H      21.34300000      23.23600000      23.61000000 
N      18.47200000      21.77600000      20.30700000 
C      18.94800000      20.70100000      19.45400000 
C      18.52100000      20.95500000      18.01700000 
O      19.32400000      20.81500000      17.08000000 
C      18.41900000      19.34700000      19.97100000 
O      18.97200000      19.09700000      21.27000000 
C      18.82300000      18.19500000      19.07200000 
H      17.93000000      21.54500000      21.11500000 
H      20.02800000      20.66900000      19.45200000 
H      17.34000000      19.39900000      20.04400000 
H      18.48000000      19.52600000      21.97100000 
H      18.50700000      17.26800000      19.52100000 
H      18.35700000      18.27400000      18.10300000 
H      19.89900000      18.16900000      18.94300000 
N      17.25100000      21.31300000      17.80600000 
C      16.74100000      21.53200000      16.46500000 
C      17.47700000      22.66200000      15.76600000 
O      17.73300000      22.56100000      14.55100000 
C      15.23500000      21.80300000      16.50300000 
H      16.63000000      21.43100000      18.57600000 
H      16.93200000      20.65600000      15.86400000 
H      14.85500000      21.89300000      15.49600000 
H      14.73000000      20.97700000      16.98500000 
H      15.01500000      22.71100000      17.04700000 
N      17.81700000      23.74800000      16.46400000 
C      18.51500000      24.85700000      15.83200000 
C      19.84600000      24.41400000      15.23900000 
O      20.18100000      24.81600000      14.11400000 
C      18.79500000      26.00100000      16.81400000 
C      17.60500000      26.88500000      17.09700000 
O      16.43800000      26.52500000      16.86800000 
N      17.88700000      28.08100000      17.61500000 
H      17.55100000      23.82300000      17.42300000 
H      17.93700000      25.22500000      14.99900000 
H      19.16400000      25.60300000      17.75400000 
H      19.58500000      26.62100000      16.40800000 
H      17.15000000      28.70900000      17.84500000 
H      18.82100000      28.38600000      17.77300000 
N      20.65200000      23.64400000      15.98100000 
C      21.96500000      23.27200000      15.47200000 
C      21.80800000      22.26800000      14.33200000 
O      22.52400000      22.34400000      13.31100000 
C      22.92200000      22.74200000      16.57500000 
C      24.36600000      22.73800000      16.04500000 
C      22.86300000      23.58400000      17.85600000 
H      20.34300000      23.31600000      16.87200000 
H      22.41100000      24.14900000      15.02800000 
H      22.62800000      21.72900000      16.82100000 
H      25.02800000      22.30700000      16.78500000 
H      24.47500000      22.17100000      15.13200000 
H      24.69300000      23.75600000      15.85500000 
H      23.60600000      23.21500000      18.55400000 
H      23.09100000      24.62200000      17.64500000 
H      21.90400000      23.53500000      18.34700000 
N      20.88000000      21.31300000      14.45800000 
C      20.70500000      20.30100000      13.43100000 
C      20.20800000      20.88100000      12.11300000 
O      20.65600000      20.40300000      11.05400000 
C      19.73600000      19.19400000      13.87400000 
C      20.20100000      18.31100000      15.04400000 
C      19.03400000      17.40300000      15.44900000 
C      21.43400000      17.46600000      14.70300000 
H      20.31100000      21.27000000      15.27800000 
H      21.66700000      19.87400000      13.19400000 
H      18.78700000      19.65200000      14.12800000 
H      19.56200000      18.55600000      13.01300000 
H      20.44100000      18.94800000      15.88700000 
H      19.30400000      16.77000000      16.28600000 
H      18.16300000      17.98300000      15.73200000 
H      18.75200000      16.76200000      14.62300000 
H      21.75000000      16.89900000      15.57200000 
H      21.21300000      16.76200000      13.90600000 
H      22.27500000      18.07300000      14.39100000 
N      19.27700000      21.84300000      12.10900000 
C      18.76700000      22.35000000      10.84300000 
C      19.67200000      23.39800000      10.20900000 
O      19.46100000      23.72000000       9.02900000 
C      17.32000000      22.87100000      10.91300000 
C      17.12600000      24.16800000      11.70200000 
C      15.75300000      24.79200000      11.43200000 
N      15.50600000      25.93600000      12.31500000 
C      15.10400000      25.86500000      13.57900000 
N      14.73500000      24.70800000      14.11900000 
N      15.06100000      26.96500000      14.32700000 
H      18.87300000      22.15400000      12.97100000 
H      18.77400000      21.52900000      10.14200000 
H      17.00100000      23.01700000       9.88700000 
H      16.70000000      22.08500000      11.32900000 
H      17.23600000      23.97200000      12.75800000 
H      17.88200000      24.89900000      11.43400000 
H      15.70200000      25.16700000      10.42100000 
H      14.95600000      24.06700000      11.53800000 
H      15.80700000      26.82400000      11.98100000 
H      14.77300000      23.85000000      13.62200000 
H      14.38700000      24.67100000      15.04800000 
H      15.31600000      27.84700000      13.94700000 
H      15.05200000      26.89100000      15.32200000 
N      20.65500000      23.94300000      10.93600000 
C      21.58300000      24.90700000      10.37000000 
C      22.79300000      24.23400000       9.73300000 
O      23.34800000      24.76600000       8.75800000 
C      22.04100000      25.91600000      11.43500000 
C      22.61800000      27.20100000      10.84900000 
O      22.00300000      27.72300000       9.87200000 
O      23.64100000      27.68200000      11.41500000 
H      20.71200000      23.74100000      11.91000000 
H      21.08700000      25.44300000       9.58000000 
H      21.17100000      26.19000000      12.01900000 
H      22.75800000      25.47000000      12.11000000 
N      23.25500000      23.10800000      10.30500000 
C      24.47700000      22.46900000       9.85200000 
C      24.30900000      20.98700000       9.55700000 
O      24.92000000      20.47800000       8.60100000 
C      25.62400000      22.68200000      10.85900000 
C      26.98500000      22.30500000      10.26900000 
S      28.13600000      21.54700000      11.52900000 
C      27.32600000      19.86800000      11.69700000 
H      22.82000000      22.79800000      11.14900000 
H      24.74200000      22.92400000       8.91300000 
H      25.62400000      23.72700000      11.13900000 
H      25.40900000      22.11600000      11.75700000 
H      26.89600000      21.58900000       9.46800000 
H      27.49700000      23.17300000       9.88600000 
H      27.87000000      19.31300000      12.43800000 
H      26.30500000      19.98200000      12.01900000 
H      27.36600000      19.35200000      10.75100000 
N      23.54000000      20.23900000      10.35500000 
C      23.33300000      18.83100000      10.08500000 
C      22.62400000      18.59000000       8.76500000 
O      22.99000000      17.66100000       8.02500000 
H      23.04600000      20.63800000      11.11700000 
H      24.26900000      18.29800000      10.05100000 
H      22.73600000      18.41900000      10.88600000 
N      21.58500000      19.38400000       8.48400000 
C      20.89800000      19.43900000       7.19600000 
C      20.29700000      18.08700000       6.80600000 
O      20.34800000      17.67300000       5.64000000 
C      21.77000000      20.00000000       6.06500000 
C      22.32400000      21.41200000       6.30800000 
C      23.32200000      21.77000000       5.19900000 
C      21.22200000      22.47200000       6.40000000 
H      21.28200000      20.01500000       9.19700000 
H      20.05300000      20.09700000       7.35500000 
H      22.59200000      19.31700000       5.89200000 
H      21.17300000      20.00800000       5.16000000 
H      22.86500000      21.40800000       7.24500000 
H      23.77500000      22.73800000       5.38600000 
H      24.11800000      21.03500000       5.13500000 
H      22.82600000      21.81200000       4.23400000 
H      21.65600000      23.45400000       6.55700000 
H      20.63900000      22.50500000       5.48400000 
H      20.54800000      22.29200000       7.22500000 
N      19.66300000      17.41000000       7.77600000 
C      19.10800000      16.08800000       7.57800000 
C      17.61700000      16.08100000       7.85200000 
O      17.11700000      16.77100000       8.75900000 
C      19.78800000      15.07300000       8.51300000 
C      21.23800000      14.80600000       8.07900000 
C      21.99300000      14.09900000       9.17500000 
O      21.72300000      12.92900000       9.50900000 
N      22.94200000      14.81600000       9.78700000 
H      19.63300000      17.78900000       8.69600000 
H      19.28100000      15.81200000       6.54900000 
H      19.75800000      15.47100000       9.52100000 
H      19.24300000      14.14200000       8.50800000 
H      21.24100000      14.17600000       7.20400000 
H      21.72900000      15.73000000       7.84200000 
H      23.16600000      15.73400000       9.48300000 
H      23.45700000      14.43300000      10.54200000 
N      16.08400000      13.84000000       9.37400000 
C      15.91800000      13.36600000      10.73400000 
C      15.79800000      14.49700000      11.74300000 
O      15.31900000      14.22900000      12.86300000 
C      17.03700000      12.39100000      11.14600000 
C      18.44200000      13.01100000      11.13700000 
S      19.42200000      12.82700000      12.72400000 
C      18.46300000      13.93400000      13.87800000 
H      16.88800000      13.55600000       8.86400000 
H      14.98500000      12.82900000      10.79900000 
H      16.77800000      12.01600000      12.12600000 
H      17.00100000      11.54400000      10.47300000 
H      19.06800000      12.55100000      10.39100000 
H      18.41100000      14.06800000      10.93100000 
H      19.10300000      14.10900000      14.71900000 
H      18.25000000      14.86400000      13.38000000 
H      17.55000000      13.45600000      14.18700000 
N      16.16600000      15.74000000      11.43500000 
C      15.93500000      16.82700000      12.37700000 
C      14.44400000      16.97200000      12.66200000 
O      14.05100000      17.29600000      13.79500000 
C      16.53500000      18.13000000      11.84400000 
H      16.56400000      15.96000000      10.54400000 
H      16.39000000      16.58200000      13.32400000 
H      16.43000000      18.91300000      12.58300000 
H      17.58800000      17.98800000      11.64600000 
H      16.05200000      18.44200000      10.92900000 
N      13.09700000      14.03500000      14.88800000 
C      13.23300000      14.27700000      16.31300000 
C      12.11100000      15.18200000      16.80600000 
O      11.51800000      14.92000000      17.87200000 
C      14.61100000      14.86700000      16.64600000 
C      14.79200000      15.12900000      18.14900000 
C      14.71300000      13.82600000      18.95100000 
C      16.09400000      15.88800000      18.41800000 
H      13.83400000      14.29600000      14.26500000 
H      13.09700000      13.34300000      16.83600000 
H      15.36600000      14.16200000      16.30800000 
H      14.75200000      15.78500000      16.08900000 
H      13.98900000      15.77400000      18.47800000 
H      14.96200000      13.99500000      19.99000000 
H      13.71800000      13.40300000      18.92700000 
H      15.40200000      13.08600000      18.56500000 
H      16.21700000      16.05900000      19.48000000 
H      16.95600000      15.33900000      18.06800000 
H      16.08700000      16.85200000      17.92300000 
N      11.79100000      16.24900000      16.07300000 
C      10.74100000      17.17700000      16.47600000 
C       9.38600000      16.50000000      16.61700000 
O       8.53600000      17.00100000      17.37700000 
C      10.61500000      18.34200000      15.48400000 
C      11.80900000      19.30400000      15.53300000 
C      11.63400000      20.41900000      14.53400000 
O      11.35900000      20.17800000      13.34300000 
N      11.79000000      21.67200000      14.97500000 
H      12.29900000      16.43100000      15.23600000 
H      10.95900000      17.55900000      17.46200000 
H      10.48700000      17.95100000      14.48600000 
H       9.71500000      18.88800000      15.74000000 
H      11.92600000      19.70000000      16.53300000 
H      12.72500000      18.78800000      15.27200000 
H      11.99900000      21.87800000      15.92200000 
H      11.69900000      22.43300000      14.34200000 
H      15.77052945      12.46738064      21.57152853 
H      18.91704537      11.27719931      22.04106672 
H      18.18929922      10.63439667      17.56786759 
H      21.40173290      11.54223087      17.18065568 
H      29.54401596      19.14056604      13.52976428 
H      30.26064729      19.38922995      16.83167433 
H      31.23243764      23.74691964      15.37957224 
H      29.30962683      25.62357384      19.80669624 
H      26.95381460      28.75732336      17.41930098 
H      24.12850024      30.82557552      18.89585204 
H      16.60721379      23.24803632      25.75030907 
H      17.00939587      15.51234121       7.29752330 
H      15.38828588      13.56573936       8.87323762 
H      13.77755616      16.80604354      11.93514991 
H      12.99043955      13.15336738      14.74181934 
H       9.18839379      15.66501248      16.10343635 
