291
Properties=species:S:1:pos:R:3 pbc="F F F"
N      28.38000000      58.04000000      14.87600000 
C      29.66700000      58.63200000      14.61800000 
C      30.19400000      58.23500000      13.23400000 
O      30.71100000      58.94900000      12.53500000 
C      30.64300000      58.18600000      15.71200000 
C      30.11100000      58.45900000      17.11000000 
C      31.99800000      58.86600000      15.50100000 
C      29.79000000      59.92200000      17.39000000 
H      28.29200000      57.30200000      15.52000000 
H      29.59700000      59.69100000      14.60400000 
H      30.78200000      57.12400000      15.62000000 
H      29.20400000      57.88000000      17.27000000 
H      30.82700000      58.09900000      17.80400000 
H      32.66000000      58.62200000      16.33200000 
H      32.46200000      58.54900000      14.59100000 
H      31.88000000      59.93900000      15.46900000 
H      29.44200000      60.04100000      18.40300000 
H      30.69700000      60.53600000      17.29000000 
H      29.05600000      60.31300000      16.72300000 
N      28.85900000      60.16500000      10.33700000 
C      29.04500000      61.57800000      10.30800000 
C      29.92300000      61.92600000       9.13400000 
O      31.13600000      62.24700000       9.26100000 
C      29.62600000      62.05400000      11.61600000 
C      28.58000000      62.09000000      12.70100000 
C      29.09200000      62.38500000      14.07500000 
O      30.33900000      62.23100000      14.30200000 
O      28.25700000      62.73400000      14.94200000 
H      29.36300000      59.62100000      11.01100000 
H      28.08700000      62.05200000      10.13800000 
H      30.43900000      61.41000000      11.90700000 
H      30.05700000      63.04600000      11.46900000 
H      27.80600000      62.80500000      12.46100000 
H      28.09800000      61.11300000      12.75500000 
N      29.89900000      64.55200000       7.25900000 
C      30.34100000      65.91800000       7.25800000 
C      30.08200000      66.58000000       8.60200000 
O      30.33300000      67.77000000       8.76200000 
C      29.69900000      66.69300000       6.11500000 
C      30.33100000      68.01700000       5.81800000 
C      29.77300000      68.64900000       4.58900000 
O      28.82800000      68.17800000       3.96800000 
N      30.35900000      69.80400000       4.20600000 
H      28.93900000      64.34900000       7.35500000 
H      31.41700000      65.91600000       7.11700000 
H      29.76400000      66.05600000       5.24600000 
H      28.63800000      66.82000000       6.32600000 
H      30.22000000      68.69700000       6.64700000 
H      31.41200000      67.89200000       5.67600000 
H      31.12600000      70.18800000       4.70900000 
H      30.02500000      70.28100000       3.41100000 
N      29.56100000      65.84000000       9.56900000 
C      29.11500000      66.49100000      10.77500000 
C      30.24800000      67.07300000      11.58500000 
O      30.08000000      68.11300000      12.18400000 
C      28.32600000      65.50100000      11.61800000 
H      29.38400000      64.87900000       9.43500000 
H      28.48900000      67.32900000      10.51700000 
H      27.91300000      66.01100000      12.49800000 
H      27.51800000      65.08500000      11.05300000 
H      28.96500000      64.70700000      11.96800000 
N      31.35800000      66.33000000      11.62900000 
C      32.59300000      66.70100000      12.31000000 
C      32.43200000      66.47700000      13.80400000 
O      31.96200000      67.37500000      14.52400000 
C      33.03300000      68.10600000      12.01500000 
C      34.33200000      68.38700000      12.65800000 
O      34.99500000      67.49800000      13.18900000 
N      34.72600000      69.66800000      12.62900000 
H      31.38200000      65.49400000      11.08900000 
H      33.34200000      66.01900000      11.94200000 
H      33.13200000      68.21400000      10.93800000 
H      32.27400000      68.80200000      12.33800000 
H      35.61500000      69.91400000      13.04300000 
H      34.18700000      70.38200000      12.22000000 
N      32.76700000      65.29900000      14.31600000 
C      32.44800000      64.99700000      15.68300000 
C      33.14400000      65.93400000      16.63200000 
O      34.34200000      66.23500000      16.52500000 
C      32.95100000      63.56400000      15.87700000 
C      34.05200000      63.43500000      14.82900000 
C      33.54500000      64.24800000      13.64600000 
H      31.39000000      65.07200000      15.85200000 
H      33.29900000      63.38600000      16.87700000 
H      32.13900000      62.89300000      15.64600000 
H      34.96900000      63.88700000      15.20800000 
H      34.25500000      62.41300000      14.56600000 
H      34.33200000      64.66300000      13.07900000 
H      32.89900000      63.65200000      13.02200000 
N      32.38000000      66.37000000      17.63500000 
C      32.90300000      67.24000000      18.62900000 
C      33.69100000      66.47000000      19.66400000 
O      33.73500000      65.27900000      19.70200000 
C      31.77200000      67.97900000      19.32800000 
O      31.11800000      66.97400000      20.12700000 
C      30.83300000      68.63200000      18.35000000 
H      31.42900000      66.06000000      17.69000000 
H      33.55700000      67.97500000      18.16300000 
H      32.20600000      68.71500000      19.98800000 
H      30.32100000      67.29600000      20.53200000 
H      30.08700000      69.21200000      18.89800000 
H      31.38300000      69.31200000      17.71700000 
H      30.34100000      67.90600000      17.75300000 
N      34.29600000      67.22200000      20.56800000 
C      35.01400000      66.60200000      21.66000000 
C      34.08400000      65.67400000      22.40700000 
O      34.43500000      64.54300000      22.74900000 
C      35.52300000      67.66400000      22.60000000 
O      36.31600000      68.52900000      21.76900000 
C      36.33600000      67.10000000      23.73500000 
H      34.37800000      68.21200000      20.49100000 
H      35.83500000      66.00400000      21.29400000 
H      34.67800000      68.23100000      22.97900000 
H      36.63800000      69.28900000      22.24400000 
H      36.72400000      67.91500000      24.33700000 
H      35.72600000      66.47600000      24.37000000 
H      37.15500000      66.52200000      23.35200000 
N      32.89300000      66.16100000      22.71200000 
C      31.99000000      65.38800000      23.53300000 
C      31.56600000      64.13600000      22.80000000 
O      31.52200000      63.03900000      23.38200000 
C      30.77100000      66.22100000      23.89300000 
H      32.59500000      67.03900000      22.36700000 
H      32.49800000      65.06300000      24.41600000 
H      30.08200000      65.65000000      24.46800000 
H      31.09500000      67.08400000      24.47900000 
H      30.28500000      66.58100000      22.99900000 
N      31.23200000      64.27800000      21.53700000 
C      30.79900000      63.12700000      20.76400000 
C      31.90200000      62.11400000      20.73000000 
O      31.68000000      60.89100000      20.88400000 
C      30.43300000      63.57900000      19.35700000 
C      29.15200000      64.40800000      19.37200000 
C      28.84800000      65.07700000      18.06500000 
O      29.82800000      65.44100000      17.34300000 
O      27.64900000      65.28200000      17.78600000 
H      31.30600000      65.16800000      21.06600000 
H      29.95500000      62.66600000      21.25000000 
H      31.24200000      64.16700000      18.96500000 
H      30.31300000      62.71300000      18.73300000 
H      28.31300000      63.76900000      19.64300000 
H      29.22800000      65.17100000      20.11400000 
N      33.10100000      62.58300000      20.49600000 
C      34.25800000      61.71700000      20.36900000 
C      34.50200000      60.99300000      21.63000000 
O      34.74700000      59.76000000      21.64700000 
C      35.45600000      62.57800000      19.98100000 
O      35.20800000      63.14600000      18.69700000 
C      36.71000000      61.75600000      19.88800000 
H      33.23200000      63.57600000      20.36900000 
H      34.08100000      60.98500000      19.59700000 
H      35.56000000      63.35800000      20.70600000 
H      34.66300000      63.93800000      18.76200000 
H      37.53500000      62.38700000      19.59500000 
H      36.95000000      61.30800000      20.85300000 
H      36.59200000      60.96600000      19.16200000 
N      34.52400000      61.70400000      22.76200000 
C      34.82600000      61.04900000      24.01000000 
C      33.78300000      60.02400000      24.33100000 
O      34.10500000      58.93000000      24.82600000 
C      34.93600000      62.06800000      25.13900000 
C      36.12200000      63.01600000      24.97600000 
C      36.14700000      63.96800000      26.14600000 
C      37.43800000      62.25000000      24.88700000 
H      34.34500000      62.68300000      22.74000000 
H      35.74400000      60.50200000      23.90600000 
H      34.02000000      62.64100000      25.16500000 
H      35.03200000      61.53600000      26.04900000 
H      35.98900000      63.58700000      24.07500000 
H      36.95400000      64.68100000      26.05400000 
H      35.21000000      64.51800000      26.23000000 
H      36.29300000      63.41300000      27.08500000 
H      38.26700000      62.95000000      24.87200000 
H      37.55100000      61.60000000      25.74600000 
H      37.49200000      61.65000000      23.99000000 
N      32.51300000      60.34400000      24.08900000 
C      31.48100000      59.37300000      24.39200000 
C      31.69700000      58.13800000      23.54400000 
O      31.58100000      56.99400000      24.04800000 
C      30.12900000      59.97100000      24.07500000 
C      29.03000000      58.97400000      24.39900000 
O      28.94100000      58.59500000      25.59600000 
O      28.31500000      58.57300000      23.43400000 
H      32.26600000      61.22600000      23.72200000 
H      31.52400000      59.07100000      25.40600000 
H      29.99400000      60.85700000      24.69400000 
H      30.07400000      60.25900000      23.04100000 
N      31.96200000      58.31900000      22.27400000 
C      32.12900000      57.18200000      21.39700000 
C      33.23900000      56.30800000      21.89900000 
O      33.10900000      55.05800000      21.97300000 
C      32.43800000      57.69600000      20.00200000 
H      32.01800000      59.23400000      21.88200000 
H      31.23600000      56.58300000      21.39900000 
H      32.55600000      56.86000000      19.31700000 
H      31.62900000      58.31200000      19.66700000 
H      33.34300000      58.27900000      20.01300000 
N      34.38300000      56.92600000      22.21600000 
C      35.50800000      56.13800000      22.64600000 
C      35.19700000      55.40600000      23.90300000 
O      35.50100000      54.20400000      24.05400000 
C      36.68600000      57.06500000      22.84200000 
O      37.00000000      57.64600000      21.54300000 
C      37.90400000      56.33700000      23.40000000 
H      34.47000000      57.89000000      22.09800000 
H      35.76900000      55.40500000      21.90700000 
H      36.39700000      57.87700000      23.49600000 
H      37.20400000      58.46800000      21.57000000 
H      38.72800000      57.02300000      23.46400000 
H      37.69600000      55.94800000      24.39800000 
H      38.15600000      55.52300000      22.76100000 
N      34.59700000      56.09000000      24.87600000 
C      34.31100000      55.45000000      26.13400000 
C      33.44600000      54.24800000      25.92900000 
O      33.63100000      53.20900000      26.58000000 
C      33.59000000      56.46800000      27.02600000 
C      33.15100000      55.87800000      28.36100000 
C      34.23400000      55.13800000      29.10000000 
N      35.40200000      55.98800000      29.25100000 
C      36.61200000      55.52900000      29.52300000 
N      36.79600000      54.21700000      29.67200000 
N      37.61200000      56.36500000      29.63700000 
H      34.33700000      57.04900000      24.73700000 
H      35.21300000      55.10900000      26.58500000 
H      34.27300000      57.28300000      27.18600000 
H      32.74900000      56.84400000      26.49600000 
H      32.75900000      56.68000000      28.96700000 
H      32.33700000      55.17700000      28.20500000 
H      33.87000000      54.82600000      30.07200000 
H      34.49900000      54.25900000      28.55700000 
H      35.28000000      56.97900000      29.20500000 
H      36.05000000      53.57400000      29.64300000 
H      37.71700000      53.87300000      29.82000000 
H      37.49800000      57.34300000      29.50900000 
H      38.53900000      56.04500000      29.87000000 
N      32.43800000      54.34600000      25.07300000 
C      31.52600000      53.24600000      24.89100000 
C      32.27600000      52.03300000      24.38300000 
O      32.03800000      50.92200000      24.80900000 
C      30.46100000      53.65000000      23.90800000 
C      29.46700000      54.60700000      24.56000000 
C      28.46200000      55.15100000      23.58800000 
N      27.63000000      54.10800000      23.01500000 
C      27.76300000      53.53100000      21.83300000 
N      28.71100000      53.89900000      20.98800000 
N      26.91500000      52.56300000      21.46400000 
H      32.27700000      55.21300000      24.57800000 
H      31.11000000      52.95600000      25.82900000 
H      30.90900000      54.10200000      23.05500000 
H      29.92500000      52.75400000      23.57700000 
H      28.93700000      54.08800000      25.35200000 
H      29.99800000      55.42900000      24.99700000 
H      27.82700000      55.87600000      24.04200000 
H      28.98400000      55.67800000      22.76700000 
H      26.90000000      53.76700000      23.60900000 
H      29.36100000      54.59700000      21.20100000 
H      28.75800000      53.44300000      20.09000000 
H      26.20000000      52.26700000      22.06400000 
H      27.05700000      52.13200000      20.58800000 
N      35.51800000      51.38500000      24.62200000 
C      36.41300000      50.88900000      25.62300000 
C      35.66300000      50.00600000      26.58300000 
O      36.12000000      48.91400000      26.98800000 
C      36.99400000      52.06400000      26.40300000 
C      38.00600000      52.86800000      25.59000000 
O      38.51400000      52.39600000      24.62400000 
O      38.25100000      54.02300000      26.11200000 
H      35.45500000      52.37100000      24.46200000 
H      37.19800000      50.30400000      25.17700000 
H      36.19900000      52.69600000      26.72700000 
H      37.49600000      51.68800000      27.27900000 
N      34.52200000      50.49600000      27.02800000 
C      33.76200000      49.80600000      28.03400000 
C      33.26900000      48.49700000      27.48300000 
O      33.29900000      47.45800000      28.20500000 
C      32.61500000      50.68100000      28.47800000 
C      33.04900000      51.85600000      29.33200000 
O      34.25100000      51.94000000      29.71100000 
O      32.11700000      52.67500000      29.63800000 
H      34.21400000      51.40600000      26.73800000 
H      34.39600000      49.57800000      28.87900000 
H      32.09100000      51.06400000      27.61100000 
H      31.91100000      50.10100000      29.05300000 
H      27.81837107      58.66810119      15.19232554 
H      30.08596559      57.29568764      12.90839156 
H      27.99363407      59.97917983      10.50013392 
H      29.54855670      61.90802383       8.20692445 
H      30.12930890      64.16114734       6.48170211 
H      32.98260831      52.13886730      23.68335952 
H      35.74555732      51.04490451      23.82040613 
H      32.91828925      48.44850814      26.54777248 
