405
Properties=species:S:1:pos:R:3 pbc="F F F"
N      37.26900000      23.62300000      23.15900000 
C      38.02200000      24.30700000      22.13500000 
C      38.39300000      25.73600000      22.43900000 
O      37.94300000      26.70100000      21.78500000 
H      37.69000000      22.81800000      23.60000000 
H      38.90900000      23.74300000      21.92800000 
H      37.42800000      24.34300000      21.21400000 
N      39.29500000      25.90600000      23.43400000 
C      39.66400000      27.19700000      23.97400000 
C      41.19400000      27.37600000      23.90200000 
O      41.91500000      26.49400000      23.43100000 
C      39.24800000      27.30200000      25.44300000 
H      39.69000000      25.09500000      23.85100000 
H      39.20200000      27.96100000      23.38000000 
H      39.27200000      28.30900000      25.79500000 
H      38.23600000      26.93200000      25.52200000 
H      39.87200000      26.69200000      26.06200000 
N      41.66000000      28.51500000      24.37000000 
C      43.10500000      28.68700000      24.65100000 
C      43.19100000      29.68000000      25.82100000 
O      42.96600000      30.88500000      25.66800000 
C      43.91300000      29.14700000      23.42600000 
C      45.34100000      28.54800000      23.39800000 
C      45.27900000      27.01100000      23.17400000 
C      46.16800000      29.20900000      22.27800000 
H      41.05500000      29.25300000      24.61700000 
H      43.45600000      27.73900000      24.96900000 
H      43.40100000      28.81900000      22.52600000 
H      43.97500000      30.23900000      23.39500000 
H      45.82100000      28.74400000      24.34700000 
H      46.27200000      26.61700000      22.97500000 
H      44.88600000      26.49800000      24.04900000 
H      44.64200000      26.79000000      22.33700000 
H      47.16000000      28.79400000      22.23900000 
H      45.68500000      29.05700000      21.32200000 
H      46.24600000      30.28700000      22.45300000 
N      40.89400000      34.15800000      27.27300000 
C      40.48100000      33.20000000      26.23700000 
C      41.04700000      33.62000000      24.88600000 
O      40.42500000      33.37900000      23.83400000 
C      38.98900000      32.88800000      26.25700000 
C      37.95100000      34.02000000      26.41400000 
C      37.80600000      34.51900000      27.88600000 
C      38.12800000      35.20700000      25.46100000 
H      40.68900000      35.09800000      27.13400000 
H      41.01300000      32.27800000      26.45900000 
H      38.77400000      32.35100000      25.33300000 
H      38.81900000      32.18100000      27.06000000 
H      37.00600000      33.56500000      26.16500000 
H      36.89300000      35.11400000      27.97100000 
H      37.71100000      33.67200000      28.55700000 
H      38.63100000      35.11700000      28.18700000 
H      37.28400000      35.89600000      25.56000000 
H      39.02900000      35.77600000      25.67000000 
H      38.17300000      34.87900000      24.41900000 
N      42.24900000      34.20200000      24.87100000 
C      42.88300000      34.69400000      23.65200000 
C      43.30100000      33.55700000      22.72000000 
O      44.19500000      32.77500000      23.00200000 
C      44.15700000      35.42400000      24.08200000 
C      44.99900000      35.99100000      22.89600000 
C      44.48400000      37.36900000      22.46500000 
C      46.48700000      36.01100000      23.26100000 
H      42.72800000      34.32300000      25.74000000 
H      42.20400000      35.36700000      23.15600000 
H      43.90300000      36.24300000      24.75700000 
H      44.78300000      34.72700000      24.64100000 
H      44.89100000      35.32100000      22.04900000 
H      45.01900000      37.72400000      21.58800000 
H      43.42700000      37.34000000      22.21500000 
H      44.62100000      38.10200000      23.26400000 
H      47.08200000      36.35900000      22.41800000 
H      46.67700000      36.68200000      24.10900000 
H      46.82800000      35.02400000      23.52600000 
N      42.69000000      33.56300000      21.48900000 
C      43.13000000      32.67000000      20.44800000 
C      42.82500000      33.30600000      19.09500000 
O      41.74700000      33.91100000      18.92300000 
C      42.44300000      31.28400000      20.53100000 
H      41.91600000      34.13200000      21.32400000 
H      44.20300000      32.52400000      20.54500000 
H      42.83300000      30.62300000      19.76000000 
H      42.62600000      30.85400000      21.47900000 
H      41.37500000      31.39100000      20.38000000 
N      43.75000000      33.12700000      18.15800000 
C      43.54500000      33.47300000      16.75000000 
C      42.83000000      32.32600000      16.06600000 
O      42.71400000      31.19400000      16.61800000 
C      44.93400000      33.83200000      16.12900000 
C      45.75800000      32.57500000      15.78100000 
C      44.81400000      34.75700000      14.91300000 
H      44.56400000      32.61900000      18.37800000 
H      42.91100000      34.34300000      16.71100000 
H      45.44000000      34.38000000      16.90000000 
H      46.77200000      32.87300000      15.53300000 
H      45.81300000      31.90600000      16.64100000 
H      45.34100000      32.04300000      14.95800000 
H      45.81900000      35.08100000      14.60800000 
H      44.35500000      34.28600000      14.05900000 
H      44.24300000      35.66300000      15.15900000 
N      42.31100000      32.55500000      14.84000000 
C      41.51300000      31.59100000      14.10900000 
C      42.24000000      30.25700000      13.87200000 
O      43.46800000      30.21700000      13.66000000 
C      41.09200000      32.19000000      12.76500000 
C      40.32000000      33.51900000      12.92000000 
O      39.13300000      33.53500000      12.58900000 
O      40.99500000      34.50000000      13.37900000 
H      42.26100000      33.48300000      14.48800000 
H      40.61600000      31.36400000      14.68500000 
H      41.99900000      32.39000000      12.18200000 
H      40.48900000      31.49600000      12.22500000 
N      41.43500000      29.19700000      13.85500000 
C      41.87200000      27.81900000      13.85200000 
C      41.12600000      27.00600000      12.78100000 
O      40.27300000      27.53000000      12.02500000 
C      41.66100000      27.11900000      15.23500000 
C      41.75600000      28.05600000      16.43400000 
C      40.98600000      27.60800000      17.66200000 
N      41.63200000      26.55200000      18.47100000 
C      41.64300000      26.55300000      19.80500000 
N      42.18100000      25.53900000      20.45200000 
N      41.14800000      27.54000000      20.50600000 
H      40.47800000      29.29100000      14.10100000 
H      42.92200000      27.79300000      13.59800000 
H      40.68300000      26.66300000      15.24400000 
H      42.38500000      26.30700000      15.33200000 
H      42.80200000      28.24600000      16.70300000 
H      41.33700000      29.00300000      16.17100000 
H      40.82300000      28.46500000      18.27100000 
H      40.01600000      27.23700000      17.35600000 
H      41.97300000      25.75400000      18.01200000 
H      42.57900000      24.74900000      19.95800000 
H      42.20000000      25.51800000      21.44700000 
H      40.66300000      28.33400000      20.11700000 
H      41.21700000      27.52300000      21.49900000 
N      41.41700000      25.70300000      12.71900000 
C      40.75900000      24.73300000      11.85300000 
C      39.51400000      24.15800000      12.54200000 
O      39.33600000      24.23800000      13.73500000 
C      41.74400000      23.59300000      11.55100000 
H      42.07700000      25.32200000      13.35400000 
H      40.46100000      25.24100000      10.93900000 
H      41.30600000      22.84200000      10.91500000 
H      42.61500000      24.00900000      11.05800000 
H      42.06700000      23.13400000      12.47700000 
N      38.61000000      23.48100000      11.76300000 
C      37.44600000      22.88100000      12.37700000 
C      37.77400000      21.69000000      13.23700000 
O      38.79700000      21.01600000      13.13600000 
C      36.58100000      22.45400000      11.16400000 
C      37.60500000      22.26800000      10.03300000 
C      38.59600000      23.36200000      10.28600000 
H      36.92400000      23.60700000      12.97600000 
H      35.99100000      21.57000000      11.35800000 
H      35.89300000      23.25200000      10.90900000 
H      38.08700000      21.29200000      10.13000000 
H      37.15900000      22.32500000       9.04500000 
H      39.58100000      23.14500000       9.89200000 
H      38.28400000      24.30900000       9.85100000 
N      32.89400000      25.05000000      14.41000000 
C      33.84100000      26.13700000      14.30300000 
C      34.31200000      26.57000000      15.67900000 
O      34.01200000      25.93000000      16.73000000 
C      33.27500000      27.28300000      13.45500000 
C      32.86700000      26.82000000      12.05900000 
C      32.42900000      27.95000000      11.11900000 
O      32.61700000      29.15400000      11.48500000 
O      31.94000000      27.59300000      10.01200000 
H      31.93300000      25.31000000      14.58200000 
H      34.73500000      25.74100000      13.80600000 
H      32.43500000      27.73800000      13.96600000 
H      34.03300000      28.06200000      13.34700000 
H      33.65800000      26.29300000      11.58700000 
H      32.02000000      26.12800000      12.11800000 
N      35.13300000      27.64800000      15.74100000 
C      36.09100000      27.85900000      16.78700000 
C      36.08400000      29.28500000      17.40900000 
O      37.17100000      29.90600000      17.44900000 
C      37.48000000      27.57100000      16.21000000 
C      37.84900000      28.55700000      15.09900000 
O      36.95500000      28.98100000      14.33500000 
O      39.08300000      28.84700000      15.00500000 
H      35.40400000      28.09500000      14.88000000 
H      35.88400000      27.16800000      17.59400000 
H      38.22300000      27.64700000      16.99500000 
H      37.49000000      26.58000000      15.82700000 
N      34.98900000      29.79300000      17.91900000 
C      34.89500000      31.17000000      18.36900000 
C      34.67600000      31.24200000      19.88100000 
O      34.90100000      30.26200000      20.61500000 
C      33.68300000      31.65100000      17.57900000 
C      32.74400000      30.44000000      17.60100000 
C      33.62900000      29.22400000      17.92200000 
H      35.81100000      31.70700000      18.12900000 
H      33.21300000      32.55100000      17.95900000 
H      33.99900000      31.86500000      16.57200000 
H      32.00400000      30.54500000      18.36100000 
H      32.24400000      30.32700000      16.63500000 
H      33.41200000      28.79700000      18.87800000 
H      33.54800000      28.44700000      17.17000000 
N      43.81400000      16.31300000      20.52700000 
C      44.48100000      17.09500000      19.48300000 
C      45.92500000      16.62400000      19.33200000 
O      46.73300000      16.68900000      20.23900000 
C      44.44300000      18.58700000      19.86700000 
C      45.29600000      19.39400000      18.88400000 
C      43.00100000      19.10600000      19.91300000 
H      43.83500000      16.68300000      21.45600000 
H      43.93800000      16.94100000      18.56200000 
H      44.87800000      18.66800000      20.86900000 
H      45.17000000      20.45600000      19.06400000 
H      46.35400000      19.17600000      18.99100000 
H      45.00900000      19.19000000      17.86300000 
H      43.00300000      20.12100000      20.28600000 
H      42.57500000      19.11100000      18.91400000 
H      42.37800000      18.51400000      20.55100000 
N      48.38600000      17.75400000      17.09300000 
C      49.41100000      18.67500000      16.62600000 
C      48.82700000      20.06900000      16.67900000 
O      47.66800000      20.24900000      17.07200000 
C      49.85700000      18.28200000      15.18800000 
C      50.98500000      17.26100000      15.18100000 
O      51.99400000      17.46000000      15.80100000 
N      50.76800000      16.16200000      14.43400000 
H      47.45400000      18.03800000      16.99500000 
H      50.26800000      18.62800000      17.27200000 
H      48.99200000      17.95000000      14.63500000 
H      50.25200000      19.14300000      14.64900000 
H      51.49700000      15.48300000      14.38300000 
H      49.93700000      15.99200000      13.93900000 
N      49.55500000      21.13200000      16.27200000 
C      48.97500000      22.49800000      16.34700000 
C      47.87800000      22.74600000      15.34400000 
O      47.34000000      23.89300000      15.34500000 
C      50.19000000      23.42100000      16.12100000 
C      51.40900000      22.56800000      16.41900000 
C      50.99900000      21.17500000      15.96000000 
H      48.55900000      22.64700000      17.32100000 
H      50.22100000      23.76400000      15.09300000 
H      50.12100000      24.30000000      16.74000000 
H      52.29600000      22.91800000      15.93200000 
H      51.59900000      22.54000000      17.50100000 
H      51.15000000      21.07200000      14.90000000 
H      51.52200000      20.38900000      16.45600000 
N      44.74300000      22.01400000      15.34900000 
C      43.46000000      22.39700000      15.96400000 
C      43.62100000      23.62300000      16.86500000 
O      42.68700000      23.99800000      17.56500000 
C      42.82700000      21.23800000      16.70900000 
C      42.40100000      20.11500000      15.80100000 
O      42.01400000      20.40400000      14.63100000 
O      42.41700000      18.92500000      16.30600000 
H      45.37200000      21.47300000      15.89000000 
H      42.80500000      22.69500000      15.15800000 
H      43.50200000      20.87300000      17.46700000 
H      41.95800000      21.61400000      17.22100000 
N      44.78600000      24.26200000      16.79800000 
C      45.11300000      25.43800000      17.57100000 
C      45.26200000      26.67400000      16.68700000 
O      44.90500000      27.77900000      17.11000000 
C      46.36500000      25.25400000      18.47000000 
C      46.46100000      26.38700000      19.48100000 
C      46.30100000      23.91300000      19.18100000 
H      45.48900000      23.85700000      16.19700000 
H      44.26900000      25.64500000      18.21900000 
H      47.24600000      25.27500000      17.83500000 
H      47.34900000      26.25300000      20.11700000 
H      46.52500000      27.35800000      19.04000000 
H      45.58500000      26.37900000      20.15300000 
H      47.15200000      23.83400000      19.85000000 
H      45.40200000      23.82800000      19.77800000 
H      46.34100000      23.07900000      18.50700000 
N      45.82800000      26.48400000      15.48900000 
C      46.05500000      27.56500000      14.53700000 
C      45.66600000      27.04200000      13.16700000 
O      45.56700000      25.86300000      12.92900000 
C      47.54600000      27.98900000      14.52700000 
C      48.09300000      28.31200000      15.89400000 
C      47.72900000      29.51800000      16.51300000 
C      48.93900000      27.44700000      16.55100000 
C      48.20200000      29.82600000      17.79400000 
C      49.42200000      27.76300000      17.82700000 
C      49.05500000      28.92000000      18.45700000 
H      46.14200000      25.58800000      15.21900000 
H      45.43700000      28.41000000      14.81600000 
H      48.13500000      27.17000000      14.09600000 
H      47.63900000      28.84200000      13.87300000 
H      47.09000000      30.20300000      16.01300000 
H      49.22500000      26.52500000      16.08300000 
H      47.90300000      30.73400000      18.26700000 
H      50.09500000      27.06400000      18.32200000 
H      49.40700000      29.15900000      19.42900000 
N      45.44900000      27.98600000      12.21200000 
C      44.97900000      27.66700000      10.88600000 
C      46.18200000      27.42600000       9.93300000 
O      47.13300000      26.72500000      10.31000000 
C      43.96000000      28.72300000      10.40200000 
C      42.96700000      28.19700000       9.38500000 
C      42.15600000      29.28400000       8.75500000 
O      41.76100000      30.27200000       9.43200000 
N      41.89100000      29.19400000       7.44800000 
H      45.44500000      28.95300000      12.47500000 
H      44.48700000      26.69800000      10.93700000 
H      43.41300000      29.04100000      11.28800000 
H      44.48000000      29.59800000      10.04700000 
H      43.44100000      27.60600000       8.60800000 
H      42.26700000      27.52800000       9.87000000 
H      42.22400000      28.43300000       6.90000000 
H      41.32700000      29.89600000       6.99900000 
N      49.91000000      31.31200000       9.84100000 
C      50.14900000      31.42700000      11.28300000 
C      51.39500000      32.23300000      11.49800000 
O      52.45300000      31.96200000      10.85000000 
C      50.31500000      30.05300000      11.96900000 
C      50.30100000      30.21600000      13.49400000 
C      49.19500000      29.08100000      11.50500000 
H      50.60300000      30.92600000       9.29900000 
H      49.29000000      31.95100000      11.71100000 
H      51.26800000      29.63000000      11.66700000 
H      50.35300000      29.23600000      13.97400000 
H      51.12300000      30.79900000      13.84800000 
H      49.36400000      30.69200000      13.83300000 
H      49.25900000      28.16700000      12.06700000 
H      48.21700000      29.51000000      11.65100000 
H      49.32000000      28.83400000      10.46500000 
N      49.79100000      27.22500000      27.17400000 
C      48.50800000      27.32600000      26.52400000 
C      47.67800000      26.08600000      26.81200000 
O      48.14200000      24.95000000      26.77600000 
C      48.65400000      27.56200000      24.99000000 
C      49.84100000      26.84700000      24.31000000 
C      49.44400000      26.41700000      22.88100000 
C      51.09300000      27.74300000      24.22600000 
H      50.43500000      26.57900000      26.75900000 
H      48.01600000      28.19000000      26.96900000 
H      47.72400000      27.26700000      24.54300000 
H      48.74000000      28.61900000      24.84500000 
H      50.06800000      25.93000000      24.85500000 
H      50.27500000      25.89200000      22.41500000 
H      48.59800000      25.75200000      22.88200000 
H      49.21500000      27.27700000      22.26200000 
H      51.94100000      27.15700000      23.86900000 
H      50.91900000      28.56400000      23.53900000 
H      51.35000000      28.15500000      25.20400000 
N      43.57700000      24.08500000      26.75800000 
C      42.31700000      23.98400000      25.99100000 
C      41.27000000      23.26200000      26.81800000 
O      41.54900000      22.23800000      27.47800000 
C      42.55600000      23.36500000      24.58000000 
C      42.54500000      21.86500000      24.37700000 
C      43.56900000      21.04300000      24.86700000 
C      41.56500000      21.29500000      23.62000000 
C      43.56400000      19.67900000      24.63100000 
C      41.54600000      19.90500000      23.35500000 
C      42.55500000      19.10800000      23.88200000 
O      42.51800000      17.75000000      23.59800000 
H      43.98700000      23.24900000      27.08700000 
H      41.99300000      24.98300000      25.82700000 
H      41.81900000      23.79500000      23.92900000 
H      43.51600000      23.78100000      24.24900000 
H      44.36300000      21.45500000      25.45400000 
H      40.77500000      21.88800000      23.20300000 
H      44.35200000      19.05700000      25.00700000 
H      40.78100000      19.47400000      22.76300000 
H      42.64300000      17.19000000      24.32400000 
N      47.63300000      22.01900000      25.96100000 
C      47.95300000      21.73000000      24.58200000 
C      49.42700000      21.97400000      24.36000000 
O      49.88000000      23.14500000      24.39300000 
C      47.09000000      22.60800000      23.65600000 
C      46.98400000      22.10700000      22.20400000 
C      48.31400000      22.03700000      21.44700000 
C      46.22200000      20.78800000      22.09900000 
H      47.54000000      22.96400000      26.24800000 
H      47.71900000      20.70400000      24.42000000 
H      46.11200000      22.66200000      24.06900000 
H      47.50300000      23.62800000      23.66200000 
H      46.38600000      22.84400000      21.70300000 
H      48.14000000      21.80300000      20.39500000 
H      48.87600000      22.95800000      21.50400000 
H      48.95000000      21.23100000      21.83200000 
H      46.17700000      20.47800000      21.06800000 
H      46.73500000      19.98100000      22.65300000 
H      45.22400000      20.87500000      22.48900000 
H      37.09254766      24.19254118      23.83315682 
H      43.43435289      29.35575781      26.73513696 
H      40.49844406      33.94596321      28.05311275 
H      37.13738590      21.39822991      13.95085762 
H      32.88959197      24.57881758      13.64320948 
H      34.34569206      32.08845313      20.29862874 
H      42.94207556      16.22200381      20.32336440 
H      46.23862648      16.24418636      18.46172417 
H      48.45054646      16.97839062      16.64104442 
H      47.60318322      22.01983272      14.71379621 
H      44.58761978      21.52428130      14.61005982 
H      46.18691174      27.83529998       9.02061335 
H      49.18606924      30.79715352       9.69657924 
H      51.39529000      32.98774452      12.15401877 
H      50.19644193      28.02845196      27.16495600 
H      46.70919556      26.17538312      27.04314630 
H      44.20970385      24.47043178      26.24699298 
H      40.33050232      23.60356909      26.84397428 
H      46.84319001      21.64228468      26.17144178 
H      50.04082272      21.20373906      24.18702670 
