498
Properties=species:S:1:pos:R:3 pbc="F F F"
N      46.17100000      53.64200000      44.49400000 
C      45.00500000      53.07500000      43.88500000 
C      45.35300000      52.47200000      43.00400000 
O      44.43600000      50.99800000      43.01300000 
H      46.84700000      54.10100000      44.31500000 
H      45.86700000      54.61800000      45.54300000 
H      46.54700000      52.94600000      45.39300000 
H      44.24000000      53.00800000      44.68700000 
H      44.64300000      54.32700000      43.49100000 
N      46.39200000      52.51300000      42.11700000 
C      46.50000000      51.36500000      41.08800000 
C      46.48200000      49.86200000      41.56600000 
O      46.18800000      49.01500000      41.11600000 
C      47.77400000      51.68900000      40.33700000 
H      46.72300000      53.29400000      42.05500000 
H      45.53000000      51.19800000      40.40100000 
H      47.92100000      50.99600000      39.41500000 
H      47.44500000      52.81000000      39.78800000 
H      48.59000000      51.85100000      40.89900000 
N      47.45100000      50.25100000      42.83100000 
C      47.70900000      48.49300000      43.21900000 
C      46.45000000      47.93500000      43.55900000 
O      46.15500000      46.49000000      43.60900000 
C      48.76700000      48.49200000      44.49100000 
H      47.75100000      50.49500000      43.15800000 
H      47.95600000      47.96100000      42.64300000 
H      48.79400000      47.67300000      44.86500000 
H      49.46700000      49.02100000      44.17400000 
H      48.12600000      49.37400000      45.33900000 
N      45.35400000      48.84000000      44.22100000 
C      43.92600000      48.17800000      44.74100000 
C      43.58900000      47.82000000      43.53400000 
O      42.59800000      46.64800000      43.42900000 
C      43.43200000      49.10400000      45.40700000 
C      42.20300000      48.62400000      46.03700000 
C      44.15500000      49.48800000      46.64800000 
H      45.58800000      49.70400000      44.26900000 
H      44.28800000      47.25000000      45.22500000 
H      43.30600000      50.17200000      44.84500000 
H      41.50200000      49.33600000      46.41300000 
H      41.33900000      48.56200000      44.92000000 
H      41.99000000      47.95900000      46.23300000 
H      43.65100000      50.22500000      47.40500000 
H      44.28400000      48.72600000      47.34300000 
H      45.10700000      49.91800000      46.54800000 
N      43.37000000      48.62700000      42.36800000 
C      42.68400000      48.34700000      41.12400000 
C      43.56700000      46.88900000      40.77200000 
O      42.46600000      45.92300000      40.18200000 
C      43.24400000      49.19000000      40.08000000 
C      42.87400000      48.98100000      38.85500000 
C      41.62700000      48.97200000      38.13300000 
C      43.92700000      48.31200000      37.92600000 
C      41.46100000      48.63800000      36.83600000 
C      43.70600000      47.95800000      37.01200000 
C      42.48100000      47.83400000      35.81300000 
H      43.93700000      49.49100000      42.43100000 
H      41.74500000      48.05700000      41.26900000 
H      42.32100000      50.19600000      40.35500000 
H      43.93700000      49.65500000      40.23200000 
H      40.93900000      49.34700000      38.51900000 
H      44.89400000      48.25800000      38.54100000 
H      40.62200000      48.59400000      36.27800000 
H      44.79100000      47.38400000      36.14000000 
H      42.45400000      47.64700000      35.24200000 
N      44.50100000      46.90400000      40.66100000 
C      44.98500000      45.51700000      40.36300000 
C      44.69700000      44.17300000      41.14000000 
O      44.30400000      43.34700000      40.68200000 
C      46.89200000      45.74300000      40.15700000 
C      47.15800000      46.32100000      38.93400000 
C      46.66900000      45.41600000      37.62900000 
C      47.56300000      47.31300000      38.82800000 
C      47.39500000      46.31500000      36.35800000 
C      48.05100000      47.85300000      37.50000000 
C      47.78800000      47.73700000      36.64800000 
H      45.18600000      47.34200000      40.97000000 
H      44.74300000      45.26400000      39.25400000 
H      47.04000000      45.95500000      40.89400000 
H      47.07200000      44.37000000      40.09800000 
H      46.41700000      44.71100000      37.64000000 
H      47.88300000      47.94600000      39.91600000 
H      46.98500000      45.76200000      35.60600000 
H      48.47500000      48.95000000      37.68900000 
H      48.05400000      47.90200000      35.52700000 
N      44.85700000      44.61800000      42.58300000 
C      44.32600000      43.58100000      43.12500000 
C      42.89100000      42.89800000      43.06300000 
O      42.60300000      41.98100000      42.85800000 
H      45.02500000      45.13900000      42.70600000 
H      44.97400000      42.51500000      43.10900000 
H      44.43700000      43.74500000      44.30500000 
N      42.25000000      44.06800000      42.82700000 
C      40.73800000      43.74300000      42.41900000 
C      40.44000000      43.24800000      41.40800000 
O      39.64200000      42.15100000      41.06100000 
C      39.83600000      45.06400000      42.49100000 
S      39.68200000      45.74200000      44.37500000 
H      42.37700000      45.03000000      42.90800000 
H      40.27200000      43.17200000      43.29100000 
H      40.31600000      45.74500000      41.97800000 
H      39.08700000      44.97900000      42.28600000 
H      41.01900000      46.30600000      44.33200000 
N      41.21500000      43.56000000      39.92300000 
C      41.22400000      43.03300000      38.92200000 
C      41.12500000      41.60600000      38.78500000 
O      40.75300000      40.73400000      38.37600000 
C      41.63300000      43.76700000      37.76000000 
O      40.87600000      43.39400000      36.77900000 
C      43.20900000      43.62500000      37.81400000 
H      41.84700000      44.43100000      40.38100000 
H      39.71300000      43.03500000      38.64000000 
H      41.45800000      44.91000000      38.00800000 
H      41.39600000      43.96800000      35.69100000 
H      43.52900000      44.27100000      36.88300000 
H      43.56400000      43.62700000      38.55800000 
H      43.27600000      42.36900000      37.18200000 
N      42.62700000      41.29700000      39.67100000 
C      42.62000000      39.82800000      39.58700000 
C      41.99400000      39.15300000      40.51700000 
O      41.61400000      37.85500000      40.14300000 
C      44.57200000      39.90900000      40.18600000 
C      45.37000000      40.49400000      39.26200000 
C      45.05800000      40.21400000      37.60500000 
C      46.34000000      41.28500000      39.42200000 
C      45.92400000      40.90100000      37.06100000 
C      46.84800000      41.64200000      38.90300000 
C      47.17500000      41.66700000      37.17700000 
H      42.91900000      41.92100000      40.03100000 
H      42.79600000      39.43600000      38.56100000 
H      44.41200000      40.23700000      41.04500000 
H      44.56000000      38.64200000      40.19500000 
H      44.51500000      39.80800000      37.41200000 
H      46.33400000      41.27000000      40.62500000 
H      45.90100000      40.78300000      35.79200000 
H      48.04500000      42.47500000      39.19400000 
H      47.58100000      42.15100000      36.78500000 
N      41.50700000      39.45200000      41.61000000 
C      40.64500000      38.88400000      42.39100000 
C      39.26400000      38.33000000      41.69900000 
O      38.84700000      37.50200000      41.63500000 
C      40.18000000      39.11600000      43.82300000 
C      39.19100000      38.97300000      44.52000000 
C      41.49400000      39.22700000      44.56900000 
H      41.83100000      40.41400000      41.88100000 
H      40.98600000      37.84200000      42.66800000 
H      40.05300000      40.72600000      43.41800000 
H      38.88900000      39.31500000      45.23700000 
H      38.12400000      38.99500000      43.82000000 
H      39.23700000      37.96500000      44.61700000 
H      41.28400000      40.12500000      45.69100000 
H      41.61100000      38.56900000      44.91100000 
H      42.42400000      39.91100000      44.17300000 
N      38.85000000      39.65300000      41.01800000 
C      37.58600000      39.55300000      40.24800000 
C      37.77400000      38.67100000      39.09600000 
O      36.76200000      37.61500000      38.89800000 
C      37.09700000      40.63400000      39.66800000 
H      39.17100000      40.33900000      41.02200000 
H      36.81100000      38.98100000      41.04400000 
H      36.13100000      40.73400000      39.40900000 
H      36.89500000      41.52500000      40.91700000 
H      37.71200000      41.22800000      39.39900000 
N      38.57800000      38.64900000      38.14400000 
C      38.78400000      38.30100000      37.19700000 
C      39.73800000      36.96300000      36.97500000 
O      39.56200000      36.26500000      35.93800000 
C      39.08300000      38.85100000      35.59400000 
C      37.84800000      40.33700000      35.58900000 
C      37.01900000      39.97500000      35.65900000 
C      38.76900000      41.25700000      35.00100000 
C      35.89200000      41.05900000      35.14200000 
C      37.80400000      42.36100000      34.52700000 
C      36.09800000      42.08900000      34.56400000 
H      39.27000000      39.53000000      38.57400000 
H      37.64000000      37.76100000      36.71500000 
H      40.28300000      39.75600000      36.36700000 
H      39.34300000      38.67000000      35.20900000 
H      36.39500000      39.19300000      36.09600000 
H      39.49700000      41.53300000      34.91100000 
H      34.89200000      40.84200000      35.31600000 
H      38.11900000      43.20000000      34.05500000 
H      35.79600000      42.77600000      34.28900000 
N      40.31600000      36.74400000      37.75200000 
C      41.46600000      35.61600000      37.86400000 
C      41.00400000      34.67500000      37.23200000 
O      41.54700000      33.72400000      36.09200000 
H      40.51500000      37.39800000      38.80600000 
H      42.30700000      36.02900000      37.12100000 
H      41.82300000      35.56000000      38.74600000 
N      39.65400000      33.57000000      37.82400000 
C      39.45700000      32.58600000      37.15700000 
C      38.98300000      32.42800000      35.70500000 
O      39.09600000      31.90200000      35.08500000 
C      38.35600000      32.17000000      38.11300000 
C      37.65300000      33.43600000      39.00200000 
C      39.26100000      34.33300000      38.97000000 
H      40.36500000      31.85000000      37.11800000 
H      37.44700000      31.47100000      37.53800000 
H      38.83600000      31.39600000      38.98700000 
H      37.12300000      33.90400000      38.15400000 
H      37.45200000      33.24400000      39.61700000 
H      38.88900000      35.27700000      38.94900000 
H      39.64500000      33.94700000      39.78800000 
N      38.29500000      33.67200000      35.37600000 
C      37.67900000      33.95000000      34.14900000 
C      38.94500000      34.09000000      33.35900000 
O      38.94100000      33.37000000      31.94300000 
C      37.08900000      35.31300000      34.07600000 
H      38.26100000      34.67500000      36.15700000 
H      37.17600000      33.17600000      33.82400000 
H      36.76500000      35.55600000      33.06700000 
H      36.05000000      35.18200000      34.65400000 
H      37.62800000      36.07100000      34.45900000 
N      40.05300000      34.67500000      33.31600000 
C      41.14700000      35.00600000      32.77400000 
C      41.86900000      33.52400000      32.45700000 
O      42.17600000      33.32100000      31.34600000 
C      41.99400000      35.72100000      33.40200000 
C      43.45200000      36.20900000      32.67400000 
C      44.44600000      35.84700000      32.80000000 
C      43.09500000      36.94000000      31.75100000 
C      45.55200000      35.76400000      32.51000000 
C      44.61400000      37.54400000      30.60300000 
C      45.67800000      36.71000000      31.25600000 
H      39.86400000      35.34500000      34.65800000 
H      40.84900000      35.37400000      31.73200000 
H      41.49700000      36.93200000      33.68300000 
H      42.29000000      35.48900000      34.50800000 
H      44.53700000      34.87800000      33.97600000 
H      42.52800000      37.42400000      31.40300000 
H      46.50300000      35.48400000      32.61100000 
H      44.41200000      37.81300000      30.26300000 
H      46.47200000      36.91600000      30.72000000 
N      41.83100000      32.89400000      33.57100000 
C      42.83400000      31.64900000      33.29200000 
C      41.86300000      30.68500000      32.54900000 
O      42.56400000      30.09600000      31.50600000 
C      42.74900000      30.93400000      34.68000000 
H      41.70800000      33.11700000      34.38600000 
H      43.49700000      31.66300000      33.07000000 
H      43.22700000      29.87400000      34.68900000 
H      43.32800000      31.53600000      35.42400000 
H      41.69600000      30.77300000      35.23600000 
N      40.40600000      30.76800000      32.88600000 
C      39.61200000      29.69500000      31.87900000 
C      39.83600000      30.27500000      30.43300000 
O      39.80600000      29.24200000      29.37800000 
C      38.47700000      29.51300000      32.37700000 
C      38.41900000      28.78700000      33.65700000 
C      37.27800000      27.92800000      34.15400000 
C      39.51200000      27.62300000      34.02500000 
H      40.20700000      30.94700000      33.14500000 
H      40.47500000      28.57300000      31.68200000 
H      37.88300000      30.38900000      32.40300000 
H      37.97500000      28.65700000      31.68500000 
H      38.87700000      29.55500000      34.42300000 
H      37.09200000      27.97800000      35.02600000 
H      36.29300000      29.40300000      34.16500000 
H      36.69400000      27.62500000      33.49300000 
H      39.35200000      27.13900000      34.62000000 
H      39.47500000      27.00400000      32.97400000 
H      40.42600000      28.01700000      33.93000000 
N      30.50800000      38.59200000      35.07900000 
C      31.58600000      39.25000000      35.95700000 
C      31.96600000      40.53000000      35.62900000 
O      32.36100000      41.48700000      36.36500000 
H      30.61600000      37.93800000      34.67900000 
H      31.22100000      39.32200000      36.98800000 
H      32.33500000      38.46800000      35.96000000 
N      32.14500000      40.79900000      33.98700000 
C      32.76300000      42.14400000      33.76800000 
C      31.36900000      42.74100000      34.06000000 
O      32.04900000      44.37300000      34.69900000 
C      32.71000000      41.87900000      31.96000000 
C      32.63500000      43.49900000      31.83000000 
C      33.77700000      41.23200000      31.66700000 
H      31.98900000      39.94000000      33.53800000 
H      33.33700000      42.28400000      34.04000000 
H      31.90700000      41.57200000      31.90800000 
H      32.98600000      43.31500000      30.36000000 
H      31.93300000      43.94800000      31.80200000 
H      33.65300000      43.92600000      32.08100000 
H      33.97300000      41.12800000      30.83800000 
H      34.79900000      41.69900000      32.08000000 
H      33.89300000      40.15900000      32.26100000 
N      31.94300000      44.20000000      38.08000000 
C      32.99900000      44.47400000      38.54000000 
C      33.14100000      45.77500000      37.94500000 
O      34.06600000      46.80000000      38.45600000 
C      34.24000000      43.59000000      38.40000000 
C      34.95300000      43.69300000      37.07900000 
C      35.16600000      44.26000000      39.54300000 
H      31.93300000      42.99700000      37.13000000 
H      32.77200000      44.79200000      39.44200000 
H      33.91000000      42.73700000      38.53800000 
H      35.69300000      43.10900000      37.03400000 
H      34.29200000      43.58000000      36.23100000 
H      35.35200000      44.71600000      36.97300000 
H      36.11100000      43.37800000      39.52100000 
H      35.41900000      44.92400000      39.50000000 
H      34.70800000      43.71000000      40.60500000 
N      32.94900000      45.98300000      36.45100000 
C      33.68800000      47.16200000      35.75000000 
C      33.67300000      48.38500000      36.52300000 
O      34.65600000      49.26600000      36.58700000 
C      33.28500000      47.17500000      34.46800000 
C      34.24200000      48.07100000      33.44700000 
C      31.80800000      47.30400000      34.25300000 
C      35.68900000      47.53400000      33.51700000 
H      32.50100000      45.32800000      35.99000000 
H      34.75400000      46.90900000      35.94100000 
H      33.46800000      45.99500000      34.02800000 
H      33.92500000      48.07900000      32.66800000 
H      34.21900000      48.89200000      34.04300000 
H      31.56800000      47.37600000      33.01300000 
H      31.23200000      46.95200000      34.78600000 
H      31.78200000      48.67300000      34.33000000 
H      36.31300000      48.16000000      32.86000000 
H      36.11100000      47.47000000      34.51800000 
H      35.68400000      46.33800000      33.14400000 
N      35.35800000      48.56300000      39.47200000 
C      36.98700000      48.66800000      39.40400000 
C      37.73700000      49.77400000      39.00700000 
O      38.52100000      50.04800000      39.15200000 
C      37.08900000      47.44900000      38.44500000 
C      38.77000000      47.25100000      37.96700000 
C      39.22900000      46.32900000      39.48800000 
C      39.03500000      46.06700000      36.80800000 
H      34.86900000      48.19700000      39.05300000 
H      37.53500000      48.20300000      40.20700000 
H      36.58500000      46.53100000      38.50000000 
H      36.77000000      47.75300000      37.23000000 
H      39.15500000      47.90600000      37.84800000 
H      40.16100000      46.12700000      39.16700000 
H      39.11400000      47.08700000      40.08700000 
H      38.63700000      45.46700000      39.61400000 
H      39.68600000      45.88200000      36.75000000 
H      38.12200000      45.05000000      37.07300000 
H      38.30700000      46.58000000      35.94400000 
N      38.27200000      52.07000000      42.16900000 
C      38.98400000      51.20800000      42.85200000 
C      40.44600000      51.76400000      42.61500000 
O      41.14800000      51.46000000      43.01800000 
C      38.56100000      49.89300000      42.80700000 
H      37.10900000      50.96500000      41.34400000 
H      38.87600000      51.67200000      43.75700000 
H      39.85900000      49.31200000      43.58300000 
H      38.11000000      49.47200000      43.07600000 
H      39.06000000      49.37200000      41.72800000 
N      35.62400000      47.05800000      48.66100000 
C      36.04300000      46.66400000      47.11100000 
C      36.43600000      44.80000000      46.78700000 
O      36.31900000      44.41400000      46.21300000 
C      37.26000000      47.17100000      46.53200000 
C      36.77400000      48.80100000      46.32400000 
C      35.75700000      48.93900000      45.32600000 
C      37.44800000      49.91800000      47.06900000 
C      35.54100000      50.46000000      45.05000000 
C      36.80500000      51.07500000      46.58500000 
C      36.13600000      51.13300000      45.73700000 
H      35.92100000      47.43800000      48.83000000 
H      35.35600000      46.49200000      46.44500000 
H      38.01900000      47.40800000      47.59800000 
H      37.67800000      46.98200000      45.88400000 
H      35.46100000      48.27200000      44.84500000 
H      38.04000000      49.69400000      47.75400000 
H      34.79800000      50.43000000      44.25700000 
H      37.53900000      52.07800000      47.21400000 
H      35.74100000      52.46900000      45.38800000 
N      37.22500000      44.97100000      48.32800000 
C      37.77700000      43.10600000      48.25700000 
C      36.40200000      42.30000000      48.10300000 
O      36.55300000      41.30600000      47.36600000 
C      38.39400000      43.19200000      49.41700000 
C      38.84500000      41.63200000      49.65900000 
C      39.78100000      41.36200000      48.76900000 
C      39.51800000      41.38600000      51.21100000 
H      37.34600000      45.14400000      48.84900000 
H      38.32700000      43.05200000      47.35900000 
H      39.28200000      43.75900000      49.54800000 
H      37.81000000      43.37100000      50.27900000 
H      38.16500000      41.07500000      49.69100000 
H      40.41300000      40.14900000      48.94800000 
H      39.59000000      41.19700000      47.80800000 
H      40.81800000      41.95600000      48.84300000 
H      39.76300000      40.56600000      51.41600000 
H      40.28400000      42.24400000      51.29200000 
H      38.62300000      41.79800000      51.95700000 
N      35.35500000      42.40000000      44.90500000 
C      35.80700000      41.29300000      43.98300000 
C      35.63200000      39.99100000      44.12500000 
O      35.34700000      39.18500000      43.18800000 
C      37.16000000      41.81400000      43.57500000 
H      35.28200000      42.67100000      45.31700000 
H      35.43000000      41.63300000      42.85500000 
H      37.76600000      41.34200000      43.35100000 
H      37.31300000      42.84500000      43.84400000 
H      37.62300000      41.61000000      45.18200000 
N      35.47700000      39.61200000      45.07000000 
C      35.14800000      38.04500000      45.77500000 
C      33.90300000      37.74600000      45.00400000 
O      33.70400000      36.74000000      44.66200000 
C      35.65200000      37.80100000      46.97100000 
C      36.71000000      37.82900000      47.65100000 
C      37.87700000      37.01700000      47.24400000 
C      36.89600000      38.45900000      48.88500000 
C      38.73800000      37.10400000      47.69400000 
C      38.26500000      38.11700000      49.06700000 
C      39.32600000      37.40300000      48.68000000 
H      35.70600000      40.25400000      46.14000000 
H      35.90700000      37.51600000      45.09800000 
H      34.68400000      38.78200000      47.72700000 
H      34.73900000      36.90500000      47.35100000 
H      37.44100000      36.48600000      45.91700000 
H      36.39400000      38.89100000      49.25200000 
H      39.71500000      36.21800000      47.01200000 
H      38.60200000      38.81000000      50.41100000 
H      40.23000000      37.39000000      49.14700000 
N      32.50300000      39.24200000      42.83900000 
C      32.06400000      38.61600000      41.23600000 
C      32.88600000      37.81000000      40.82000000 
O      32.31800000      36.83400000      40.13600000 
C      33.29400000      40.03700000      40.90400000 
O      32.49700000      41.27000000      41.04800000 
C      33.52200000      39.89000000      39.37900000 
H      32.70700000      39.66900000      43.29500000 
H      31.48200000      38.96400000      40.87600000 
H      34.19800000      39.95500000      41.29900000 
H      32.80800000      41.50000000      42.06400000 
H      33.84400000      40.61900000      38.95700000 
H      33.89000000      39.17000000      39.07300000 
H      32.41500000      39.81800000      38.75200000 
N      33.98600000      36.92400000      41.54800000 
C      34.63300000      36.02600000      41.09900000 
C      33.71000000      34.64600000      41.24800000 
O      33.54400000      33.92800000      40.85700000 
C      35.86900000      35.67900000      42.00300000 
H      34.44800000      37.77400000      42.27000000 
H      34.79600000      35.80500000      40.24300000 
H      36.33500000      34.68800000      41.75800000 
H      36.57400000      36.40700000      41.72400000 
H      35.60500000      35.71800000      43.11700000 
N      31.12900000      34.36900000      38.54200000 
C      31.97600000      34.04100000      37.57200000 
C      31.57000000      32.54600000      37.17700000 
O      31.52700000      31.74700000      36.88200000 
C      33.17100000      34.33900000      37.24800000 
C      33.14900000      36.01400000      36.65400000 
C      33.82500000      33.77800000      36.33900000 
C      34.54700000      36.41800000      36.94200000 
H      31.84400000      35.33900000      39.32600000 
H      31.24300000      34.10400000      36.64200000 
H      33.80300000      34.34600000      38.40200000 
H      32.97600000      35.91100000      36.00900000 
H      32.48800000      36.36700000      37.44300000 
H      35.14800000      33.98100000      36.14600000 
H      34.11800000      32.41700000      36.75000000 
H      33.51800000      33.56600000      35.42300000 
H      34.52900000      37.72300000      36.64500000 
H      34.83100000      36.62200000      38.23400000 
H      35.35000000      36.08900000      36.62100000 
N      32.44100000      31.80300000      39.17500000 
C      32.42800000      30.43900000      39.05200000 
C      31.25000000      29.91500000      39.00300000 
O      30.79000000      28.76200000      38.45300000 
C      33.02900000      30.32800000      40.34700000 
C      34.68800000      30.76500000      40.14500000 
C      35.35100000      30.70600000      41.61600000 
C      35.48400000      29.55100000      39.23000000 
H      32.56100000      32.69200000      39.51800000 
H      32.88700000      30.09000000      38.26500000 
H      32.73000000      30.90100000      41.18700000 
H      33.04500000      29.41400000      40.56200000 
H      34.60900000      31.58800000      39.81300000 
H      36.21500000      30.88000000      41.50500000 
H      34.79000000      31.38800000      42.24000000 
H      35.14700000      29.63000000      42.05000000 
H      36.32200000      29.91100000      39.30200000 
H      35.19700000      28.66300000      39.70300000 
H      34.92800000      29.75200000      38.26100000 
H      39.97940389      31.25629380      30.30455625 
H      29.79460824      38.38203300      35.58593792 
H      30.54606565      42.20507314      33.87142255 
H      31.36754259      44.00499764      38.74394492 
H      32.86950611      48.62132731      37.06939452 
H      35.11209352      48.21755545      40.26585016 
H      37.33237168      50.46260533      38.40525369 
H      37.87970698      52.65032925      42.73408774 
H      40.59816230      52.51039796      41.96712908 
H      34.76381045      47.32189375      48.68183329 
H      35.57879833      42.62162555      48.57086325 
H      35.71091272      43.18090856      44.63387649 
H      33.25140994      38.47751776      44.80322112 
H      31.79039507      39.19218300      43.38646003 
H      33.10963872      34.52901826      42.03912679 
H      30.37925675      34.71339318      38.18244696 
H      30.47567474      30.38501111      39.42668615 
