 47 
 
N               164.0980968252       55.5534921290      118.5060208980
C               164.9692535262       54.7237418318      117.6907812641
C               164.6719671858       54.8036684785      116.1996210148
O               165.5748746703       54.8983401383      115.3717631343
C               164.7577347011       53.3057197498      118.2284776267
C               163.3548764184       53.3473294504      118.8260396307
C               163.2645914831       54.7593314139      119.3949636638
H               166.0077509730       55.0482822338      117.8175030148
H               164.8693398325       52.5604728568      117.4441948155
H               165.5015504089       53.1231957384      119.0035321138
H               162.5995373078       53.2110770153      118.0519515406
H               163.2159791030       52.5942909110      119.5967139888
H               162.2367988849       55.1263342877      119.4015517826
H               163.6664720456       54.7952819386      120.4137789971
N               163.3917384383       54.6276453794      115.8627352145
C               162.9800792504       54.6625344392      114.4795120721
C               163.1012806067       56.0861255855      113.9276652264
O               162.8034059129       57.0776562417      114.5755256146
C               161.5393537871       54.1687088132      114.3493627422
C               160.5582919811       54.9991389974      115.2442696344
O               160.7528351848       54.9416335248      116.4752674585
O               159.6468939869       55.6113054466      114.6580103637
H               162.6326095777       54.7851145434      116.5270649605
H               163.6604612965       54.0094024918      113.9136739714
H               161.2069725804       54.2377161612      113.3131380150
H               161.4877584890       53.1300168977      114.6817255503
N               163.5621827867       56.1452525015      112.6709092022
C               163.7411192082       57.3775397732      111.9304675749
C               163.8364807264       56.9827479628      110.4587513707
O               164.1939523190       55.8607086265      110.1273547727
C               165.0264391115       58.0888476799      112.4003953450
C               165.1759012540       59.5528189963      111.9758483038
C               164.0641640926       60.4207511780      112.5626637501
C               166.5348117907       60.0621049263      112.4570699346
H               163.8509846996       55.3163922403      112.1670741861
H               162.8675874213       58.0102894688      112.1153635309
H               165.0205322372       58.0364621968      113.4918126499
H               165.8813283271       57.5121571289      112.0415138513
H               165.1589813254       59.6123058874      110.8822206751
H               164.2643985376       61.4696003965      112.3653120986
H               163.0890634265       60.1732967480      112.1493542269
H               164.0120958142       60.2773942728      113.6399714841
H               166.6576748256       61.1146831895      112.2204300127
H               166.6212560118       59.9530084426      113.5358036244
H               167.3379395845       59.5047105560      111.9821875083
H               164.5926233565       56.1532993890      118.9595346913
H               163.6048021263       57.6460099705      109.7471274986
