 251 
 
N               133.6592574383       66.7242042895      129.9263971543
C               134.0886348205       68.0169062906      129.4517023439
C               135.5937833678       68.0041929164      129.1874482424
O               136.0616676565       68.5588367319      128.1917405357
C               133.6737599633       69.0778697261      130.4648399771
C               132.1476959345       69.0724919502      130.6143871839
O               131.4120133749       68.5324473183      129.8093174068
N               131.6934952314       69.7429359622      131.6808556869
H               133.2806610514       66.6870111193      130.8667978770
H               133.6017317986       68.2208846082      128.4881194692
H               134.1519537123       68.8559127627      131.4195715714
H               134.0000960703       70.0603382468      130.1208748187
H               130.7077141882       69.6992012330      131.8884880249
H               132.3212015900       70.1550410867      132.3479137722
N               130.8760060260       57.7642669068      131.9073874427
C               129.8582707159       58.7866166170      131.8688991743
C               128.6079635793       58.4472570421      132.6810353196
O               127.9006888572       59.3437504265      133.1163839340
C               129.4344890190       59.1688940145      130.4308075421
C               130.6369103815       59.7139030695      129.6684323261
C               128.7927698539       58.0069271283      129.6772488405
H               130.6454935209       56.8567415014      131.5233185743
H               130.2985537212       59.6771102896      132.3339897471
H               128.6875591744       59.9621893870      130.5421679116
H               130.3322201798       60.0266110913      128.6747399103
H               131.0658160414       60.5629305625      130.1953343005
H               131.4012978590       58.9456954215      129.5706962981
H               128.4636431002       58.3445445296      128.6982259055
H               129.4991081961       57.1929640580      129.5295613380
H               127.9305563533       57.6199057052      130.2151077446
N               131.7545451918       56.7022556390      127.2109207420
C               131.9704651970       57.1400227037      125.8476303602
C               133.4800969393       57.1070118823      125.6404106651
O               134.2416059998       57.5316886500      126.4990157970
C               131.3597425250       58.5346196647      125.6123093410
C               129.8353840713       58.3818679113      125.5905154697
C               131.9051970890       59.1460272051      124.3257275416
C               129.0868412229       59.7046174990      125.6741037331
H               132.4219446031       57.0723308783      127.8798506414
H               131.4930463311       56.4050404809      125.1908078180
H               131.6515770009       59.1686630299      126.4537211954
H               129.5534523903       57.8469833208      124.6824974180
H               129.5473335071       57.7516865072      126.4340702433
H               131.4450831205       60.1128994937      124.1438995765
H               132.9814461562       59.2897274963      124.3979919033
H               131.7205233433       58.4862171755      123.4806320999
H               128.0168697676       59.5183750171      125.6378794477
H               129.3162440751       60.2087038040      126.6084794923
H               129.3495976590       60.3667483209      124.8547217407
N               129.7559311164       65.5790393610      120.1544586284
C               128.3103559851       65.6023235995      120.0529282271
C               127.6941511912       64.5393784720      120.9601533727
O               126.6362186705       64.7317235250      121.5642515006
C               127.8750347002       65.3232060613      118.6149350406
C               128.2771483935       66.4483848767      117.6659680886
O               129.1633568940       67.2493821942      117.9037624643
N               127.5668750397       66.4747773928      116.5248597052
H               130.2918427602       65.5778541585      119.2965244547
H               127.9494438280       66.5877271706      120.3821249256
H               128.3649269895       64.4031811382      118.2832782157
H               126.7938169733       65.1886158480      118.5877079326
H               127.7860501502       67.1787487732      115.8386219180
H               126.8349732488       65.8131567170      116.3333520997
N               128.3319188118       63.3773769898      120.9928005758
C               127.8461808990       62.2826911889      121.8044854205
C               127.8928882320       62.6534334407      123.2900158550
O               126.9788858356       62.3263694491      124.0427389051
C               128.6305186270       61.0004718807      121.5204102070
C               127.8369006769       59.7742696369      121.9763836458
C               128.6433490476       58.4797147792      121.8407825473
N               128.9587932533       58.1539675132      120.4609329983
C               128.1389643746       57.5737294532      119.5875079534
N               128.5726374920       57.3423771689      118.3485108558
N               126.8964111042       57.2396135579      119.9133625305
H               129.1858416677       63.2491665780      120.4592782868
H               126.7862008679       62.1240295967      121.5593508139
H               128.8156881064       60.9583854156      120.4459863489
H               129.5958417375       61.0568713389      122.0275529904
H               127.5578947431       59.8961880220      123.0227537703
H               126.9238220814       59.7113678128      121.3847482223
H               129.5902511640       58.5889124698      122.3700634775
H               128.0998479072       57.6492980232      122.2966994767
H               129.8700142427       58.4329523866      120.1306874805
H               129.5278981811       57.5248930905      118.0895758987
H               127.9907024864       56.8649144051      117.6793544606
H               126.5401389409       57.3890513072      120.8431484171
H               126.3112989247       56.7564993773      119.2502972629
N               128.9593276941       63.3366039349      123.6986556763
C               129.0067668283       63.8484261307      125.0523870353
C               127.8566937437       64.8317157232      125.2749227021
O               127.1704975482       64.7810593445      126.2885716660
C               130.3246276165       64.5587391699      125.3713118733
C               131.4714574499       63.6393008728      125.7007131545
C               132.6855557177       63.7761909981      125.0435863087
C               131.3674710145       62.6923171538      126.7136866273
C               133.7717654546       62.9886706560      125.3836569038
C               132.4468486323       61.8943510648      127.0481077243
C               133.6511739001       62.0380500566      126.3811147333
H               129.7152680033       63.5616341122      123.0612967870
H               128.8390543946       63.0134746899      125.7448861753
H               130.5835738740       65.1952028877      124.5241572252
H               130.1461816817       65.2007800601      126.2393502643
H               132.7832988310       64.5038560967      124.2515220152
H               130.4365594278       62.5775275507      127.2486981756
H               134.7115994653       63.1164427909      124.8672419203
H               132.3596339515       61.1597649294      127.8341242398
H               134.4865170374       61.3988166084      126.6280239397
N               127.6558845140       65.7430542147      124.3203177590
C               126.5451290070       66.6659588021      124.4595178239
C               125.2591012916       65.8771720338      124.7490156564
O               124.4537598766       66.2560042403      125.5951737386
C               126.3227450808       67.4877438497      123.1894312688
C               127.4716194376       68.4266460428      122.8317201960
O               128.0293669239       68.3740129949      121.7478638296
N               127.7849508551       69.3338056516      123.7662051229
H               128.2843212907       65.8284297009      123.5257241407
H               126.7167471021       67.3146683941      125.3296439098
H               126.1805257272       66.8088602872      122.3472243155
H               125.4190482471       68.0873188270      123.3151482492
H               128.5222944411       69.9920439476      123.5714798043
H               127.2760333296       69.4110713198      124.6297751232
N               125.0843560313       64.8069598522      123.9804787792
C               123.8989442420       63.9737984295      124.0661381991
C               123.7934758224       63.3693936052      125.4680153852
O               122.7458130730       63.4228421952      126.1143149013
C               123.9763776690       62.8727512492      122.9909375590
O               123.9659592738       63.3841920613      121.6855284445
H               125.7355516572       64.6330455197      123.2170828775
H               123.0036879311       64.5879433937      123.9008732327
H               124.8751330974       62.2718609287      123.1755708981
H               123.0929667797       62.2366357488      123.0715952311
H               124.7593069640       63.9229251081      121.5327725635
N               124.8970005629       62.7889263777      125.9219265502
C               124.9593793620       62.2044401778      127.2513661445
C               124.5028772853       63.2324898320      128.2904476159
O               123.6051429211       62.9769368478      129.0855480112
C               126.3764775144       61.7329227614      127.5444612012
H               125.7305527261       62.7170979943      125.3398373479
H               124.2553442615       61.3640774625      127.3125630989
H               126.4190237058       61.2867180981      128.5342452199
H               126.6684345469       60.9917898531      126.8069266048
H               127.0623272388       62.5746589658      127.5057133102
N               125.1656541219       64.3881754806      128.2661173421
C               124.8717965324       65.4590921180      129.1972801026
C               123.3755842676       65.7586944228      129.1784790903
O               122.7213769646       65.8650457223      130.2081362702
C               125.6847649448       66.7215388862      128.8561277673
C               127.1717704233       66.4966828040      129.1669090325
C               125.1392701751       67.9176131132      129.6352881762
C               128.0743913419       67.5309835418      128.5030909669
H               125.8702003890       64.5622708391      127.5562104500
H               125.1104039956       65.1310061330      130.2188834420
H               125.5628427215       66.9086844113      127.7842865304
H               127.3133111816       66.5274550851      130.2482994124
H               127.4684956413       65.5072512289      128.8179087281
H               125.7544916253       68.7958161996      129.4667667619
H               124.1224700469       68.1563616707      129.3325324886
H               125.1292739231       67.7028124514      130.7018278334
H               129.1054446287       67.3959982898      128.8196562560
H               128.0277169217       67.4300775609      127.4214122853
H               127.7804502584       68.5423310449      128.7682286290
N               122.8393088007       65.9136030525      127.9652175822
C               121.4393809408       66.2632526844      127.8155689202
C               120.5765931300       65.2659055003      128.5853244240
O               119.6884404835       65.6212077020      129.3565689389
C               121.0577888522       66.2939272865      126.3164356871
O               121.7598307459       67.3113086128      125.6438640252
C               119.5684130455       66.5680109829      126.1420889356
H               123.4257897703       65.8748627504      127.1378913177
H               121.2566005179       67.2566803643      128.2486178397
H               121.3079542819       65.3117630386      125.8887344737
H               122.7072052013       67.1021294814      125.6288974263
H               119.3427885328       66.6473484183      125.0830517443
H               118.9752173065       65.7711481992      126.5793109213
H               119.3131949840       67.5098726508      126.6195915600
N               120.8361802475       63.9857387900      128.3164941427
C               120.1045649374       62.9171049234      128.9690106423
C               120.2246744627       63.0390045376      130.4969700591
O               119.2286675840       63.0676873057      131.2110306559
C               120.6118019365       61.5436595285      128.5152659215
C               119.9308974795       61.1359289360      127.2122509122
O               118.8983606744       60.4840654675      127.2003473074
N               120.5470946286       61.5340648119      126.0912367278
H               121.6157753802       63.7442159686      127.7135179611
H               119.0353871082       63.0171924264      128.7345067106
H               121.6957286082       61.5764460585      128.4110004215
H               120.3407930590       60.8058904712      129.2715528730
H               120.0825851191       61.3569386425      125.2139979876
H               121.3281306341       62.1772881558      126.1092629334
N               121.4725335953       63.0786960594      130.9525921201
C               121.7517288984       63.0514312480      132.3734328786
C               121.1200111121       64.2469534289      133.0743812378
O               120.6026767675       64.1173296723      134.1847317472
C               123.2576234532       63.0310421457      132.6352239019
C               123.9536214074       61.7281129948      132.2162533591
C               125.4607076301       61.9029524470      132.4012654594
C               123.4549355651       60.5303193529      133.0196539487
H               122.2663065120       63.0670904909      130.3185954240
H               121.2760736693       62.1643692133      132.8086619946
H               123.7077421667       63.8690436200      132.0992582514
H               123.4184962737       63.1884167007      133.7034892947
H               123.7548128772       61.5442559732      131.1562094404
H               125.9884856477       60.9737346522      132.2023438012
H               125.8445639429       62.6701070705      131.7328908432
H               125.6880865288       62.1991941218      133.4227983316
H               124.0168385948       59.6402219329      132.7486629442
H               123.5895332723       60.7017228158      134.0841099590
H               122.4019175108       60.3347065315      132.8353974018
N               121.1694014353       65.4090566411      132.4349613239
C               120.5617848774       66.6018485052      132.9847301159
C               119.0647691246       66.3876835062      133.1911681218
O               118.5027906916       66.6284585352      134.2516212105
H               121.6712417203       65.4886459439      131.5564229265
H               121.0014891016       66.8503102270      133.9562041870
H               120.7239160333       67.4254399485      132.2908375280
N               118.4169100974       65.9006023358      132.1266507516
C               117.0101540499       65.5644169387      132.2320730404
C               116.7815765913       64.6778671409      133.4576960949
O               115.9080275595       64.9392541552      134.2846443983
C               116.5027278426       64.8587357918      130.9683702967
C               115.9942783179       65.8892536806      129.9639940623
O               114.8260004321       66.2455020593      129.9475401442
N               116.9168748830       66.3813455365      129.1312041880
H               118.9075470556       65.6967335462      131.2631074892
H               116.4313643740       66.4826508507      132.4066304185
H               117.3014939217       64.2451000595      130.5535621360
H               115.6597190930       64.2184239228      131.2303723244
H               116.6395346431       67.0965185843      128.4774808061
H               117.8921209818       66.1203461856      129.1913455809
N               117.5550543159       63.5983410063      133.5524079318
C               117.3551002212       62.7109725514      134.6756745869
C               117.5783494986       63.4508657934      135.9984930125
O               116.7541134735       63.3102264154      136.8979646950
C               118.1916026917       61.4120218137      134.5854885607
O               119.4941129136       61.6182218837      134.1133058769
C               117.5204685801       60.4126494727      133.6450202192
H               118.2424579950       63.3543199372      132.8410428996
H               116.2972006805       62.4117896685      134.7032131298
H               118.2211135714       60.9883213437      135.6046990177
H               119.8901906405       62.4173470374      134.5033225330
H               118.1383198543       59.5221201849      133.5797704348
H               116.5378798773       60.1385523772      134.0150034240
H               117.4319017228       60.8462808968      132.6526212179
H               133.0103716238       66.4072621589      129.3892799552
H               136.2096345697       67.5425175870      129.8258706631
H               131.5968138649       58.0403369806      131.4445468938
H               128.3692633773       57.4920130655      132.8557669958
H               130.9373395491       56.9621952596      127.4840623376
H               133.8605614763       56.7347164441      124.7938630629
H               130.0372157239       66.3057589488      120.6047447710
H               118.3823875281       64.0337458924      136.1158541527
