 210 
 
N               134.6554466386       65.2355449942      133.7432336884
C               135.4256523795       64.2898065198      132.9615162106
C               135.0188345007       64.3312294678      131.4850362368
O               135.8520329931       64.2394823855      130.5829733883
C               135.1857025436       62.8583039028      133.4403288729
C               135.6157723144       62.5853109361      134.8766775618
O               136.1333522284       63.3986715540      135.6182319108
N               135.3339849528       61.3279494673      135.2733022180
H               134.3040371919       64.9130183785      134.6410846719
H               136.4916879538       64.5576177378      133.0218932793
H               134.1213188103       62.6334965196      133.3323173643
H               135.7416143229       62.1868797446      132.7828122707
H               135.6624703844       61.0172315261      136.1741670894
H               134.9512468476       60.6543716130      134.6310125511
N               133.7108127411       64.3749106607      131.2601201487
C               133.1564267008       64.3871420677      129.9225302102
C               133.6683590495       65.6224347116      129.1860637927
O               134.0464650737       65.5663649894      128.0191869264
C               131.6358359441       64.4070427306      129.9840557542
H               133.0468508359       64.3369455915      132.0328512251
H               133.5075766628       63.5081075598      129.3652728544
H               131.2325584075       64.3244062837      128.9790283814
H               131.2827288365       63.5716752154      130.5823742741
H               131.2969756417       65.3420820797      130.4230455295
N               136.9992408972       65.3857626575      128.2641873243
C               136.9331827284       64.6424729295      127.0270678318
C               136.7023062571       65.5646293758      125.8278467496
O               137.4432411058       65.5436679494      124.8489704318
H               136.4263619240       65.0710774413      129.0411925636
H               137.8659543693       64.0954509688      126.8518197524
H               136.0957098663       63.9489615836      127.1017789572
N               140.5429911128       55.9733238414      124.9854358716
C               140.2450351257       56.4514375653      126.3225951120
C               138.8001682323       56.0657058835      126.6574323871
O               137.8719648769       56.4835341714      125.9721004138
C               140.3694457033       57.9750977076      126.3835253930
C               141.8031576027       58.5089310753      126.4605982274
C               142.6615597252       58.0254132823      125.2948326492
C               141.7563401552       60.0361452018      126.4778162662
H               140.3899520108       56.6195986540      124.2189022724
H               140.9322054216       55.9547413587      127.0148912278
H               139.8723618900       58.3787856927      125.4984620629
H               139.8151310149       58.3165271177      127.2594539130
H               142.2521948857       58.1539439211      127.3931531874
H               143.6340138110       58.5095257281      125.3288057930
H               142.8045204009       56.9483868296      125.3345680159
H               142.1888770540       58.2667342585      124.3440997239
H               142.7576257462       60.4421279028      126.5871418055
H               141.3342984947       60.3995513480      125.5431901702
H               141.1420138113       60.3903184745      127.3008395016
N               138.6266905044       55.3189072102      127.7520876097
C               137.3281691419       54.8209624019      128.1653519453
C               136.7958600828       55.7629087573      129.2464736769
O               137.1621340658       55.6781783741      130.4151342899
C               137.4981636317       53.3933374337      128.7211395387
O               138.4940517187       53.3746751135      129.7139287901
C               137.8846209501       52.4233593830      127.6107849563
H               139.4121353402       54.8961703754      128.2314038209
H               136.6514211910       54.8127583988      127.3060546559
H               136.5254616056       53.0846810569      129.1424364259
H               138.2450323714       54.0299934884      130.3941481233
H               138.0312904651       51.4317242445      128.0273076088
H               137.0943217720       52.3831172987      126.8644115825
H               138.8068260724       52.7405508088      127.1282237771
N               135.9741982504       56.7258190497      128.8242010216
C               135.5333526987       57.7919930715      129.7072262145
C               134.1888317130       57.4125537507      130.3337294779
O               133.1370155438       57.4310268823      129.7061917528
C               135.3851138349       59.1281152676      128.9616731251
C               136.6519564867       59.4947614086      128.1797417322
C               134.9722108658       60.2175793949      129.9516557949
C               137.8824249189       59.7725503940      129.0347803489
H               135.6070384649       56.7313516320      127.8801932267
H               136.2868158005       57.8709739790      130.4980756177
H               134.5840721825       58.9910026688      128.2290930382
H               136.8695012156       58.6879041555      127.4753357040
H               136.4316520061       60.3852028032      127.5888957252
H               134.9114138166       61.1768412010      129.4443021640
H               134.0008274166       59.9886211618      130.3835827963
H               135.6936889692       60.2989509751      130.7600615837
H               138.7146289476       60.0427831967      128.3893422542
H               137.7028273366       60.6004307622      129.7141227978
H               138.1698821488       58.8939049260      129.6080862493
N               134.2331567543       57.0827275335      131.6286655605
C               133.0270704081       56.7408240349      132.3646938272
C               132.1053309495       57.9758636854      132.3859062836
O               132.4992570528       59.0429761623      132.8330662472
C               133.3964365249       56.3409310120      133.7913187756
C               132.1808636111       55.8565908970      134.5735664811
C               131.6152485118       54.5485196706      134.0387300349
O               132.2511241078       53.7696770316      133.3386347495
N               130.3661318522       54.3133220951      134.4500181094
H               135.1192649595       56.9919455802      132.1021981606
H               132.5178908619       55.9104758773      131.8616251216
H               134.1296259420       55.5333462004      133.7478477421
H               133.8278817338       57.2079188693      134.2928711476
H               132.4681137625       55.6692693366      135.6104731630
H               131.3877933187       56.6052729449      134.5775786433
H               129.8646765873       55.0165641596      134.9759149951
H               129.8856157699       53.4618735049      134.1893575800
N               130.8760060260       57.7642669068      131.9073874427
C               129.8582707159       58.7866166170      131.8688991743
C               128.6079635793       58.4472570421      132.6810353196
O               127.9006888572       59.3437504265      133.1163839340
C               129.4344890190       59.1688940145      130.4308075421
C               130.6369103815       59.7139030695      129.6684323261
C               128.7927698539       58.0069271283      129.6772488405
H               130.6454935209       56.8567415014      131.5233185743
H               130.2985537212       59.6771102896      132.3339897471
H               128.6875591744       59.9621893870      130.5421679116
H               130.3322201798       60.0266110913      128.6747399103
H               131.0658160414       60.5629305625      130.1953343005
H               131.4012978590       58.9456954215      129.5706962981
H               128.4636431002       58.3445445296      128.6982259055
H               129.4991081961       57.1929640580      129.5295613380
H               127.9305563533       57.6199057052      130.2151077446
N               130.3920035151       54.1016070409      129.2805444734
C               131.4693298854       54.9650195670      128.8735148600
C               131.1671040156       55.5247775384      127.4792082804
O               130.4285733893       54.9443480552      126.6992110076
C               132.8261268823       54.2014763423      128.7929616048
O               132.8816440033       53.4364161593      127.6091435394
C               133.0073427075       53.2759019050      129.9996215261
H               130.1995839573       53.3219727835      128.6600687221
H               131.5672775290       55.7764876145      129.5980656720
H               133.6194464034       54.9624532863      128.7901502894
H               133.6352322732       53.7320831659      127.0475131997
H               134.0382984827       52.9348210925      130.0421961285
H               132.7576653205       53.7669097179      130.9361208571
H               132.3645919904       52.4073709490      129.8761628116
N               131.7545451918       56.7022556390      127.2109207420
C               131.9704651970       57.1400227037      125.8476303602
C               133.4800969393       57.1070118823      125.6404106651
O               134.2416059998       57.5316886500      126.4990157970
C               131.3597425250       58.5346196647      125.6123093410
C               129.8353840713       58.3818679113      125.5905154697
C               131.9051970890       59.1460272051      124.3257275416
C               129.0868412229       59.7046174990      125.6741037331
H               132.4219446031       57.0723308783      127.8798506414
H               131.4930463311       56.4050404809      125.1908078180
H               131.6515770009       59.1686630299      126.4537211954
H               129.5534523903       57.8469833208      124.6824974180
H               129.5473335071       57.7516865072      126.4340702433
H               131.4450831205       60.1128994937      124.1438995765
H               132.9814461562       59.2897274963      124.3979919033
H               131.7205233433       58.4862171755      123.4806320999
H               128.0168697676       59.5183750171      125.6378794477
H               129.3162440751       60.2087038040      126.6084794923
H               129.3495976590       60.3667483209      124.8547217407
N               133.9012100938       56.5780885052      124.4867037736
C               135.3057386204       56.3570286584      124.2487710856
C               135.8003097016       57.3073808981      123.1636195736
O               135.0950760112       57.6515249777      122.2251873795
C               135.6010561720       54.9090546353      123.8822704961
C               135.2962628236       53.9173945004      125.0505767248
O               134.8987348380       54.4119303680      126.1303348320
O               135.4850591282       52.7152919890      124.8179370570
H               133.2514179610       56.2106219407      123.8109378892
H               135.8145221800       56.5869005146      125.1888617819
H               135.0280500462       54.5897639389      123.0080528335
H               136.6598984107       54.7946825024      123.6362711776
N               137.0320524732       57.7778550009      123.3962147406
C               137.7091678795       58.6827776900      122.4964004427
C               138.9507781447       57.9960411362      121.9481821836
O               139.7656231308       57.4761158182      122.7085609479
C               138.1577885561       59.9885143251      123.1982916473
C               137.1058561304       60.4482196931      124.2119879534
C               138.4502970082       61.0436390758      122.1342611144
C               137.5155909226       61.7221628653      124.9412208947
H               137.5639143957       57.3799774774      124.1624109640
H               137.0023079540       58.9003811201      121.6900294968
H               139.0851303991       59.7642385155      123.7380770008
H               136.1535927152       60.5862845663      123.6974063025
H               136.9599907122       59.6487823791      124.9412346961
H               138.9066290649       61.9209323884      122.5805210313
H               139.1339505296       60.6492004764      121.3848762224
H               137.5292598570       61.3359336133      121.6348556938
H               136.8160633789       61.9119879041      125.7486639332
H               138.5111943193       61.6027104575      125.3603467189
H               137.5142736872       62.5782216158      124.2735451161
N               128.9593276941       63.3366039349      123.6986556763
C               129.0067668283       63.8484261307      125.0523870353
C               127.8566937437       64.8317157232      125.2749227021
O               127.1704975482       64.7810593445      126.2885716660
C               130.3246276165       64.5587391699      125.3713118733
C               131.4714574499       63.6393008728      125.7007131545
C               132.6855557177       63.7761909981      125.0435863087
C               131.3674710145       62.6923171538      126.7136866273
C               133.7717654546       62.9886706560      125.3836569038
C               132.4468486323       61.8943510648      127.0481077243
C               133.6511739001       62.0380500566      126.3811147333
H               129.7152680033       63.5616341122      123.0612967870
H               128.8390543946       63.0134746899      125.7448861753
H               130.5835738740       65.1952028877      124.5241572252
H               130.1461816817       65.2007800601      126.2393502643
H               132.7832988310       64.5038560967      124.2515220152
H               130.4365594278       62.5775275507      127.2486981756
H               134.7115994653       63.1164427909      124.8672419203
H               132.3596339515       61.1597649294      127.8341242398
H               134.4865170374       61.3988166084      126.6280239397
H               135.1618097180       65.9566718252      133.9264617577
H               133.7017927390       66.5055122338      129.6540982766
H               137.8430795830       65.3742049012      128.5769215417
H               135.9332903956       66.2038571756      125.8294039342
H               141.4113355064       55.7420292624      124.9356279205
H               128.3692633773       57.4920130655      132.8557669958
H               130.5802988424       53.7451665960      130.0852152626
H               139.1102120115       57.9644917323      120.9614778321
H               128.9411326653       62.4369972271      123.7180647510
H               127.6553261816       65.5294683955      124.5874692031
