 493 
 
N               138.6989318301       68.7216182065      121.3201113779
C               138.8485463992       70.0424188856      120.7516644188
C               140.3153648026       70.3736889910      120.4828248232
O               140.6617955401       70.8962058090      119.4260410195
C               138.2726037077       71.1031009972      121.6886075793
C               136.7470189787       71.0700774036      121.7458208231
C               136.2328736271       71.9279709615      122.8883340310
O               136.7786292771       71.9625999047      123.9833426962
N               135.1461639736       72.6583413922      122.6034244898
H               138.0776142350       68.6142525714      122.1152227596
H               138.3329995049       70.0764386808      119.7787873894
H               138.6714143123       70.9358263727      122.6909007876
H               138.6000444449       72.0874678012      121.3488987235
H               136.3159339230       71.3917167575      120.7994602578
H               136.4076432855       70.0504637451      121.9438391596
H               134.6303378049       72.5026450287      121.7530559737
H               134.7092566577       73.1898089483      123.3408158380
N               141.1603280133       70.1394621297      121.4837825941
C               142.5577642778       70.5026266573      121.3799808321
C               143.2489305909       69.6797668788      120.2912137913
O               144.0463319511       70.1896756810      119.5113165568
C               143.3105644794       70.3235808430      122.7207479305
O               143.4148572377       68.9747730633      123.0995001923
C               142.6902790104       71.1843391075      123.8216048928
H               140.8111062282       69.7284867166      122.3419223566
H               142.6309678709       71.5555800090      121.0782518456
H               144.3459763743       70.6423129728      122.5452234895
H               142.5291710104       68.5849107730      123.1559724003
H               143.3155932242       71.1369889682      124.7084342068
H               142.6122982935       72.2165096649      123.4971288333
H               141.7016853309       70.8175104858      124.0852263436
N               142.9386252949       68.3861641987      120.2920940983
C               143.5013035874       67.4719907941      119.3235715854
C               143.1099497737       67.9217729323      117.9179185221
O               143.9282069308       67.9636952696      117.0070736083
C               143.0266524545       66.0275995643      119.6054781623
O               143.3784872002       65.6239416233      120.9042570735
C               143.6741894011       65.0524997099      118.6289648580
H               142.2414278253       68.0335481606      120.9353470714
H               144.5964835634       67.5108577995      119.3913188010
H               141.9311983525       66.0153767100      119.4872962949
H               142.8276433758       66.0967185282      121.5459038650
H               143.2899577507       64.0544693583      118.8146378606
H               143.4636339883       65.3412471607      117.6047490963
H               144.7479443176       65.0441754424      118.7920470873
N               141.8277234776       68.2471420772      117.7779046287
C               141.2742758742       68.7705170216      116.5506461430
C               141.9979381677       70.0509804217      116.1394499795
O               142.3344409033       70.2334736492      114.9763086113
C               139.7841973765       69.0650921023      116.7211720811
C               138.9257277128       67.8190105871      116.9086929470
C               137.5214957790       68.2180586906      117.4381446429
O               137.0294275415       69.2853140088      117.0353839529
O               136.9792481459       67.4276146101      118.2511187014
H               141.1987599617       68.1848741129      118.5686736525
H               141.4316968446       68.0432388002      115.7415404435
H               139.6658571087       69.7073392718      117.5965013757
H               139.4208196458       69.6234450071      115.8579901766
H               138.7946855389       67.2803549186      115.9679976224
H               139.3654293287       67.1426092498      117.6390086836
N               142.2280068025       70.9391957669      117.1073549730
C               142.9097745983       72.1821903984      116.8078507035
C               144.2785700534       71.8948007288      116.1875903581
O               144.6538858446       72.4262845458      115.1471944246
H               141.7748292998       70.8509808552      118.0118002508
H               142.3309230354       72.7823740794      116.0987635537
H               143.0411380363       72.7369219622      117.7357077676
N               145.0088823131       71.0157992829      116.8687108801
C               146.3226099919       70.5942486902      116.4181725090
C               146.2324893982       70.0076013533      115.0079384043
O               147.0140967084       70.3449215396      114.1209568835
C               146.8816689491       69.5810642023      117.4043601113
H               144.6769546574       70.6498667361      117.7565601146
H               146.9811707345       71.4712778482      116.3527764887
H               147.8808624657       69.2763471010      117.1094738103
H               146.9317153502       70.0395542236      118.3877371311
H               146.2290085434       68.7124686043      117.4467219879
N               145.2672829791       69.1118149649      114.8191878614
C               145.0551073032       68.5122496616      113.5209696375
C               144.7704557461       69.5784861614      112.4700845702
O               145.1884215848       69.4374737376      111.3218519877
C               143.9016666654       67.5095735414      113.5372615234
C               144.2086447496       66.2123184336      114.2965574703
C               142.9295916629       65.3821682276      114.4049887422
C               145.2959749454       65.3932879063      113.6069825110
H               144.6649829150       68.8212127479      115.5830211377
H               145.9806554907       68.0170624811      113.1997893650
H               143.0399581015       68.0066445109      113.9857781879
H               143.6510970789       67.2647942642      112.5029609761
H               144.5416012424       66.4703958553      115.3059462330
H               143.1163321313       64.4615236910      114.9516999191
H               142.1519051940       65.9331572104      114.9301319535
H               142.5561208468       65.1187255066      113.4174110724
H               145.4208075802       64.4445253082      114.1208823595
H               145.0169685137       65.1918189201      112.5753310532
H               146.2516737947       65.9091101325      113.6158003029
N               144.0537753640       70.6274387261      112.8545343433
C               143.7636285417       71.7174469172      111.9476340386
C               145.0648905266       72.4039061295      111.5240510221
O               145.2491903179       72.7261877697      110.3481281464
C               142.8196125676       72.7207595810      112.6042220040
C               141.4209597829       72.1456532324      112.7834057300
O               141.0709093388       71.0763099338      112.3066882825
N               140.5824344393       72.9338509297      113.4617015916
H               143.5903517063       70.6261371845      113.7577786108
H               143.3049008181       71.3145413118      111.0337328588
H               143.2341224946       73.0089297041      113.5723901954
H               142.7524937556       73.6137553098      111.9796647872
H               139.6330751742       72.6296750441      113.6141426143
H               140.8765159096       73.8165027662      113.8438314546
N               145.9622501810       72.6016507728      112.4791876633
C               147.2625775697       73.1697961252      112.1786280999
C               148.0155010225       72.2718669928      111.2019825198
O               148.6304390495       72.7178666089      110.2326614730
C               148.0924265375       73.3288580920      113.4541861348
C               147.7117994314       74.5961112767      114.2132560323
C               148.1332298867       75.8316346092      113.3546417407
O               149.3402174041       76.1445684505      113.3912965702
O               147.2387877492       76.3797000755      112.6791475555
H               145.7245413527       72.4199993181      113.4500530648
H               147.1371916671       74.1539321165      111.7055895670
H               147.9547931281       72.4376701664      114.0705871716
H               149.1480525415       73.4089870711      113.1820518062
H               146.6380724614       74.6329405760      114.4000353762
H               148.2556985451       74.6373168410      115.1574835550
N               148.0025744227       70.9750693575      111.4988045201
C               148.6545711590       70.0067770577      110.6364753175
C               148.0537709022       70.1104634024      109.2287192986
O               148.7585608102       70.1891739941      108.2319947939
C               148.5390790821       68.5974646918      111.2376656994
C               149.4458640705       68.5269258592      112.4737829984
C               148.8965695736       67.5399726564      110.1965190462
C               149.2728275789       67.2611820804      113.3015539784
H               147.5356694644       70.6502125787      112.3416403278
H               149.7172562776       70.2717031752      110.5376970392
H               147.4970257850       68.4558489373      111.5400700794
H               150.4866092587       68.6059866870      112.1530555715
H               149.2289762393       69.3845521497      113.1135266650
H               148.8078664029       66.5467283676      110.6242446152
H               148.2255347238       67.6056391420      109.3445028116
H               149.9129586467       67.6821687828      109.8406885219
H               149.9711113112       67.2779236494      114.1338025974
H               148.2634877523       67.2055189400      113.7016183872
H               149.4692313713       66.3673141572      112.7175010478
N               146.7228187990       70.1115140052      109.2058776122
C               145.9552417460       70.2043941655      107.9815895051
C               146.4698232209       71.3880522686      107.1561172262
O               146.8177158671       71.2414098166      105.9954304555
C               144.4665976048       70.3184698962      108.3234234837
C               143.5761133119       70.1200045969      107.1020369575
O               143.7691755204       70.6918343800      106.0477792420
N               142.5016194088       69.3271733270      107.3104577059
H               146.1984088013       69.9809073289      110.0673299876
H               146.1291602283       69.3041546915      107.3737131980
H               144.2323169007       69.5837399558      109.0936154300
H               144.2817842955       71.3195050293      108.7207079731
H               141.9549695240       69.0597816144      106.5037497949
H               142.4543617306       68.6735809540      108.0768897882
N               146.5589344272       72.5420691429      107.8191020412
C               147.0296204524       73.7456819218      107.1619327269
C               148.3898011320       73.4866791668      106.5133621518
O               148.6250537546       73.8193890088      105.3576802125
C               147.1520426129       74.9271665855      108.1340799705
C               145.8729682427       75.7545771284      108.1701659373
O               145.7860745822       76.8359589772      107.6092171024
N               144.8586198623       75.2068424104      108.8473652638
H               146.2432661120       72.6032995816      108.7790277879
H               146.3269999882       74.0012170122      106.3546562785
H               147.4027162298       74.5669046437      109.1324588669
H               147.9496253832       75.5890724329      107.7937310149
H               143.9798838883       75.6971762101      108.8735180592
H               144.9632038036       74.3427222057      109.3569841173
N               149.3057522269       72.9026251561      107.2912465031
C               150.6230979657       72.6265027970      106.7474490876
C               150.4686379885       71.8269706573      105.4419891659
O               151.1117423318       72.1216511815      104.4391468501
C               151.4857853236       71.8393465419      107.7408230262
C               152.1505571881       72.7484598606      108.7649825724
O               153.1353194839       73.4173148167      108.4867417985
N               151.6086240543       72.7290935379      109.9897042231
H               149.1306254889       72.7506158260      108.2768010362
H               151.1218797726       73.5702845702      106.4855638486
H               150.8700264127       71.0842728604      108.2272968809
H               152.2935347603       71.3497938009      107.1934275655
H               152.0082127058       73.3176732206      110.7054749909
H               150.6682892689       72.3953174399      110.1475853477
N               149.6447673283       70.7868645080      105.4964137006
C               149.4713599598       69.9100185237      104.3558263627
C               148.8117918904       70.6110647201      103.1619882895
O               149.1065707468       70.2988106370      102.0100532516
C               148.6758353250       68.6721309636      104.7724490381
C               149.4192773288       67.7975195575      105.7930353638
C               148.4728875657       66.7426821658      106.3634766129
C               150.6274953602       67.1135039390      105.1609607767
H               149.1261099650       70.5789306994      106.3453098708
H               150.4650179516       69.6148795621      103.9967183826
H               147.7323770169       69.0156362374      105.1994381030
H               148.4584061804       68.0845153784      103.8797029409
H               149.7536827632       68.4319157500      106.6183565360
H               148.9639241053       66.1843949824      107.1558356102
H               147.5821034601       67.2099316279      106.7750335244
H               148.1653504994       66.0420171888      105.5907303773
H               151.1058680888       66.4592707909      105.8838771721
H               150.3126582037       66.5185706861      104.3077628190
H               151.3648764674       67.8367185158      104.8255278187
N               147.9084693402       71.5470179873      103.4439728014
C               147.2944723759       72.3457465408      102.4034004524
C               148.3679789833       73.1512306372      101.6553504424
O               148.3770497319       73.2498018012      100.4333090604
C               146.2546687351       73.2938005533      102.9989220326
C               145.0266856456       72.5508151900      103.5357892140
C               144.1330962297       73.5196084118      104.2868010966
O               144.4804151607       74.0635114117      105.3254983311
N               142.9390112072       73.7561711757      103.7256037304
H               147.6381577104       71.7257614069      104.4054776957
H               146.8278255641       71.6812746827      101.6646237180
H               146.7218601363       73.8575223969      103.8085115290
H               145.9501979899       74.0047976780      102.2283719664
H               144.4785321397       72.0800872375      102.7222842125
H               145.3344732928       71.7841460508      104.2483826251
H               142.6553243833       73.3100723657      102.8714998513
H               142.3074281952       74.4038590640      104.1692797578
N               149.2799518000       73.7209014279      102.4409910722
C               150.3968617222       74.4583866137      101.8822484286
C               151.2182167848       73.5141845229      100.9988284742
O               151.6470879596       73.8403995840       99.8964971623
C               151.2519746570       75.0137576634      103.0216060311
C               152.2650172298       76.0516483337      102.5436243258
C               151.5931096989       77.4114455517      102.3598314794
N               152.5620094052       78.4028330661      101.9423851205
C               152.3926718648       79.3522964731      101.0269211990
N               151.2878595669       79.4557772904      100.3065576001
N               153.3745573340       80.2519643300      100.8698362466
H               149.1954167378       73.6731928408      103.4492813714
H               150.0252644526       75.2659760274      101.2370678724
H               150.5857093990       75.4667191770      103.7587664252
H               151.7537264284       74.1729002788      103.5012753635
H               153.0654917033       76.1468191613      103.2782210106
H               152.6995420001       75.7281066565      101.5970933427
H               150.8036796456       77.3338630543      101.6163002326
H               151.1471095963       77.7258323173      103.3098092335
H               153.4195044206       78.4061664515      102.4796952873
H               150.6132239072       78.6717801789      100.1942800650
H               151.2458649155       80.1469404751       99.5759186181
H               154.1842551210       80.2400079012      101.4664191091
H               153.2761236188       81.0031891696      100.2087763373
N               154.8574120949       69.7698218629      111.4444236064
C               153.8848806248       68.7318613444      111.7196015898
C               154.3874148881       67.8704308902      112.8771244154
O               153.6679967624       67.5832595898      113.8314616542
C               153.6058327787       67.8778570546      110.4722922725
C               152.8307851132       68.7143238213      109.4459488621
C               152.8554894886       66.6076571174      110.8691525817
C               152.6260530331       67.9975021886      108.1165647481
H               155.1882168988       69.8883067667      110.4931493902
H               152.9499019870       69.1977857234      112.0686641953
H               154.5734411989       67.5900907247      110.0473012596
H               151.8615651245       68.9874129019      109.8688331948
H               153.3849923867       69.6365930064      109.2659654241
H               152.6022162402       66.0233568981      109.9903736046
H               153.4793225092       65.9861583154      111.5103802941
H               151.9460501053       66.8513523192      111.4131248192
H               152.2159553756       68.6876495145      107.3849474384
H               153.5748227348       67.6159133254      107.7468137410
H               151.9404591507       67.1618500636      108.2193617515
N               154.4517405853       69.4688791218      116.3491233794
C               153.0974328576       69.4370374343      116.8660922510
C               152.7794478522       68.0424844686      117.4048810015
O               152.3201997757       67.8739405911      118.5352511375
C               152.0899530678       69.8470233334      115.7800606489
C               150.6582469314       69.6064089651      116.2544838526
C               152.2778510316       71.3169580977      115.4158290189
H               154.5827218025       69.6928309609      115.3707680418
H               153.0255269156       70.1329066263      117.7143414432
H               152.2890875529       69.2295608495      114.8977492445
H               149.9600329052       69.9449933078      115.4934079474
H               150.4821279563       68.5486682434      116.4347160880
H               150.4651182753       70.1545503822      117.1734390386
H               151.5653321233       71.6077077582      114.6476841080
H               152.1122699779       71.9505831473      116.2825982880
H               153.2749044679       71.5121407291      115.0297757492
N               152.0865163514       68.4085798031      121.5014965235
C               150.7365153328       68.7783237581      121.8867721939
C               150.2532223118       67.8396878707      122.9939736844
O               150.3563219721       66.6260335683      122.8911558079
C               149.7843586068       68.6896835973      120.6733649971
O               150.2707100187       69.4569021367      119.6012476984
C               148.4044895296       69.2198711269      121.0501029912
H               152.2418760810       68.0173915162      120.5818419497
H               150.7611346430       69.8115929374      122.2536738004
H               149.7100531274       67.6302126533      120.3844170691
H               151.0200238860       68.9880360177      119.1912087459
H               147.7250611204       69.0747867044      120.2163759362
H               148.0118973871       68.7010981875      121.9184685913
H               148.4683857955       70.2846669738      121.2575260345
N               148.7069346708       63.2128823975      120.1047100398
C               149.0157688844       62.8124902630      118.7507871164
C               150.2154579446       61.8727256371      118.6468393125
O               150.6729014467       61.5675049713      117.5490315669
C               149.2815783982       64.0305371977      117.8619039759
C               148.0555269129       64.9074101448      117.6003155113
C               148.5016831015       66.1933655107      116.9090459858
C               147.0182859618       64.1868819679      116.7462504559
H               149.3348948122       63.8688333628      120.5469166770
H               148.1571100060       62.2411713016      118.3764591471
H               150.0667907553       64.6196426197      118.3445377703
H               149.6696274277       63.6620951587      116.9106118055
H               147.5953182227       65.1654883425      118.5598720063
H               147.6441215114       66.8155303080      116.6707018402
H               149.1720195074       66.7623605585      117.5504614024
H               149.0178611804       65.9539047329      115.9824641396
H               146.1612917584       64.8324491086      116.5757779221
H               147.4462001722       63.9169918918      115.7846687808
H               146.6714136007       63.2777119520      117.2299972101
N               149.8675514915       60.8078163335      114.6295375817
C               149.8777274268       61.5624472251      113.3912454589
C               151.1862523086       62.3492993599      113.3352818869
O               151.4095272622       63.2671212241      114.1145800875
C               148.6855275026       62.5301009906      113.2986205205
C               147.3525550066       61.7853223364      113.4404979651
C               148.7727628197       63.3196444614      111.9938643875
C               147.1298625018       60.6757806738      112.4168593598
H               149.9209226475       61.3300617551      115.4969099872
H               149.8380942287       60.8534723944      112.5638891685
H               148.7728069089       63.2353863468      114.1330548576
H               147.2953747345       61.3615434132      114.4461386842
H               146.5493087552       62.5175546701      113.3450455204
H               147.8992613323       63.9577653185      111.8877344029
H               149.6619726310       63.9460441771      111.9892154961
H               148.8290617402       62.6506860808      111.1399002638
H               146.1195689829       60.2900338249      112.5126050499
H               147.2530607896       61.0411213058      111.4014434507
H               147.8175984842       59.8487300515      112.5689130656
N               145.9372042177       63.5624321572      104.0398826157
C               144.8626683809       64.3833798351      104.5560942937
C               143.6178801297       63.5405372854      104.8299240309
O               142.9806765733       63.6781778879      105.8712930094
C               144.5596661128       65.5616316054      103.6309831290
C               145.3886127668       66.7994733900      104.0030915562
C               145.3748692459       67.8190161356      102.8667317116
C               144.8452735370       67.4379099294      105.2788941200
H               146.2547374739       63.7017910876      103.0869881797
H               145.1726140350       64.7505871977      105.5428747646
H               144.7688570272       65.2481697121      102.6064639488
H               143.4962414926       65.8014529988      103.7053630682
H               146.4211621519       66.4815736231      104.1687745537
H               145.9831697040       68.6796351974      103.1359039476
H               145.7824786028       67.3696767905      101.9641978233
H               144.3531439008       68.1555489172      102.7028613189
H               145.3172949202       68.4024196565      105.4458805476
H               143.7723247155       67.5947247368      105.1892035934
H               145.0119096844       66.8040399191      106.1461185146
N               143.9850357105       62.1592774660      108.1955439559
C               143.7368508243       63.1903237475      109.1837946653
C               142.2367663941       63.3515657233      109.4215284027
O               141.7475116694       63.3510646422      110.5511855286
C               144.3468457994       64.5298354672      108.7343792677
C               143.8397188417       65.6744298357      109.6125624996
C               145.8710596358       64.4434463136      108.7714944952
H               144.6108894442       62.3630800840      107.4244375204
H               144.1744865964       62.8779024481      110.1435356143
H               144.0106065245       64.7034263712      107.7075296615
H               144.4409659688       66.5631553060      109.4420408768
H               142.8006843021       65.9007937730      109.3815976364
H               143.9032462844       65.3966989684      110.6618560983
H               146.3070269811       65.3820109142      108.4409563997
H               146.2080709777       64.2376272396      109.7841980611
H               146.2266596788       63.6514839107      108.1185435736
N               141.5298124976       63.6013839599      108.3224228670
C               140.1606388342       64.0446790428      108.3908201837
C               139.2042126292       62.9603015625      108.8631208004
O               138.2488360803       63.2452987352      109.5830463363
C               139.7413346542       64.6099508604      107.0427945931
C               140.4152295207       66.0151034118      106.7988250993
O               140.6872444207       66.3052712802      105.6240742973
O               140.5884777826       66.7340753177      107.7978723394
H               141.9704233941       63.5667596079      107.4114810406
H               140.1001041975       64.8592990706      109.1305298931
H               140.0225330687       63.9299667352      106.2376888422
H               138.6576676259       64.7462991359      107.0177122013
N               139.7398880407       60.8373070030      110.9647174851
C               139.9217298439       60.7441418039      112.3964420974
C               139.3243447291       61.9818337657      113.0672732009
O               138.6292567673       61.9029367339      114.0790623804
C               141.4088517337       60.5947146501      112.7098737405
C               142.0167836972       59.3418913053      112.0659392031
C               143.5391836700       59.4488042319      112.1151560534
C               141.5197598931       58.0664816730      112.7405143216
H               140.4696046015       61.3056522279      110.4439992501
H               139.3441443492       59.8844205841      112.7594211201
H               141.9192951297       61.4799279835      112.3235271486
H               141.5328920465       60.5591191085      113.7928436001
H               141.7194261388       59.3204289931      111.0143122629
H               143.9990432464       58.5412942929      111.7341749291
H               143.8602917293       60.2788090097      111.4910664456
H               143.8722043577       59.6257389000      113.1337015020
H               141.9685279752       57.1954510371      112.2703504021
H               141.7637371004       58.0764907893      113.7987140892
H               140.4383358925       57.9738696742      112.6572859265
N               139.5811834035       63.1497562142      112.4730838163
C               138.9518778782       64.3702389155      112.9370314828
C               137.4658999750       64.1019602520      113.1959072040
O               136.9037522125       64.4755724930      114.2216141116
C               139.0981305296       65.4918646200      111.9030703774
C               138.4128160033       66.7768522959      112.3829402730
C               138.1121481572       67.7685498276      111.2575346248
N               139.2462310614       68.6240949981      110.9676832441
C               139.5416730493       69.1792140469      109.7961886834
N               138.8590432374       68.8959207948      108.6826395235
N               140.5014938249       70.0973370203      109.7616023755
H               140.2218614573       63.1988012576      111.6855708760
H               139.3897131027       64.6770607504      113.8982571806
H               140.1595058334       65.6602365840      111.7176481563
H               138.6370348046       65.1465809526      110.9764953833
H               137.4666219679       66.5066283208      112.8523192680
H               139.0213948784       67.2578795034      113.1497293832
H               137.8346405323       67.2066852550      110.3653881356
H               137.2623035973       68.3925532293      111.5535660275
H               139.7388931605       68.9918103878      111.7736421978
H               138.3396770906       68.0325916845      108.6389238458
H               139.2772379202       69.1639002672      107.8045640893
H               140.8891217918       70.4487528895      110.6348022585
H               140.7712599426       70.5226113285      108.8899817972
N               136.8163439634       63.5253758290      112.1807284474
C               135.3982387761       63.2565954542      112.2559693866
C               135.0144768405       62.4833904517      113.5151731720
O               133.9900380786       62.7692260753      114.1257850295
C               134.9454111459       62.4874626891      110.9963214728
O               135.7595247078       61.3881754673      110.6945473987
H               137.2962079133       63.2299674596      111.3335579554
H               134.8447007716       64.2050862210      112.3053090620
H               133.8959415480       62.1982037568      111.1233843661
H               135.0410011621       63.1511584607      110.1333739200
H               135.6166387676       60.6557968706      111.3056127966
N               135.8022627484       61.4641365676      113.8595554348
C               135.5233465716       60.6873592012      115.0495619247
C               135.4199728969       61.6025205855      116.2615994087
O               134.5121719624       61.5028794959      117.0816691904
C               136.6233654663       59.6669775140      115.2941782163
C               136.7169196481       58.6072524332      114.1321167777
O               135.6625268636       58.3462390212      113.5302198716
O               137.8462873594       58.1269211776      113.9392403936
H               136.6756475306       61.2785558781      113.3907100591
H               134.5689188415       60.1595382203      114.9193503216
H               137.5963681353       60.1489545915      115.3939455992
H               136.4198105322       59.1094062604      116.2126063846
N               136.4114456215       62.4851973011      116.3705844351
C               136.5459967140       63.3671097510      117.5116551959
C               135.3341568926       64.2977799255      117.5968012348
O               134.7380188302       64.4914124356      118.6518394494
C               137.8443315140       64.1601020818      117.4046033526
C               139.1022118227       63.2836262384      117.4753670728
C               140.3281621057       64.1256269184      117.1319965709
C               139.2732239583       62.6431622608      118.8491162846
H               137.1253861871       62.5193595942      115.6563790028
H               136.5323278017       62.7613468105      118.4279898490
H               137.8260861398       64.6900805803      116.4502135791
H               137.8631220975       64.9105474598      118.1973836356
H               139.0164039633       62.4815746818      116.7319429857
H               141.2243253819       63.5131884765      117.1662536434
H               140.2314959771       64.5462014381      116.1345961454
H               140.4335433986       64.9434467493      117.8410061526
H               140.1237880500       61.9661886846      118.8490921458
H               139.4215497712       63.4071394054      119.6087064675
H               138.4006209402       62.0543165454      119.1199741066
N               134.9530979141       64.8344579566      116.4403825329
C               133.7950512222       65.7075614536      116.3741740864
C               132.5679861909       64.9504721870      116.8946001267
O               131.8146569181       65.4056027005      117.7468721843
C               133.5737389949       66.1686241399      114.9419649014
H               135.5202060135       64.7021101470      115.6117542240
H               133.9587491658       66.5659269513      117.0407676415
H               132.6841879551       66.7892475092      114.8912524213
H               134.4329656356       66.7488212508      114.6169431364
H               133.4541408511       65.3027220604      114.2950619156
H               138.3779024426       68.1598927638      120.6944879612
H               151.4254126495       72.5881257533      101.3142409485
H               154.5128701552       70.5709486640      111.6668796701
H               155.3253151706       67.5235669884      112.8717864580
H               154.9293205400       70.0873248743      116.7957129428
H               152.9436716871       67.2370232678      116.8354402354
H               152.6170292798       69.1349900820      121.5312310069
H               149.8423762869       68.2158917228      123.8244411464
H               147.8971958542       63.6052143248      120.1246777046
H               150.6334265255       61.5018700572      119.4761573482
H               149.1054748160       60.3322861940      114.6853069920
H               151.8798787594       62.1181831557      112.6530299929
H               146.6751536929       63.6838045482      104.5405814421
H               143.3124875723       62.8665551816      104.1572550858
H               144.3459155664       61.4390783116      108.5968903245
H               139.3507111851       62.0100308186      108.5883050690
H               139.6824832205       60.0101421580      110.6147131911
H               132.3522871787       64.0418691969      116.5369487008
