 425 
 
N               193.0666538024       70.4006720087       96.1944885983
C               193.2449630061       71.6102781783       96.9768619577
C               194.4286895765       71.3933343313       97.9264948930
O               194.3076473285       70.8179513791       99.0024878325
C               191.9780975743       71.9334816784       97.7630275030
H               192.8307429325       69.5530917953       96.7081311121
H               193.4727561520       72.4086719343       96.2634719259
H               192.0897698485       72.8870466806       98.2701765797
H               191.1306765975       71.9724399028       97.0850269770
H               191.8093965904       71.1596216495       98.5077411282
N               196.1372846833       72.5906998670      100.2414241486
C               196.2356565487       73.3333303061      101.4845468425
C               197.6731262551       73.1746922616      102.0005738549
O               198.2299996872       72.0847460096      102.0156362406
C               195.2423127144       72.7836175369      102.5216955110
C               195.3419861856       73.5658130127      103.8307926173
C               193.8084180962       72.8415248183      101.9974747629
H               195.4797257477       71.8186573173      100.1885863557
H               196.0314419085       74.3929874344      101.2885844900
H               195.5233952297       71.7412021990      102.7103697738
H               194.7566863282       73.0718914926      104.6021205757
H               196.3667215603       73.6294544903      104.1878298160
H               194.9553948327       74.5750380669      103.7087055673
H               193.1334566236       72.4800141923      102.7684565897
H               193.5397031009       73.8685038689      101.7642606520
H               193.6733308298       72.2305223754      101.1085717167
N               200.7013789642       74.6567780218      105.0917682305
C               200.8355671766       74.9561324800      106.4951745381
C               201.1591405799       73.7114124578      107.3201183846
O               201.2488312153       72.6004852601      106.8124195487
H               201.5210179829       74.2976411544      104.6266659394
H               201.6296454878       75.6948271550      106.6392977903
H               199.8890287867       75.3826294660      106.8399926506
N               200.7116980436       72.0984242201      111.5458437259
C               199.9667919881       72.0787586743      112.7866749647
C               200.8122480890       71.4528822419      113.8855500335
O               201.4362430357       70.4095743145      113.6866070437
C               198.7025137006       71.2350442734      112.6417954668
H               200.9375450333       71.2012754076      111.1258940389
H               199.6999333247       73.1059864372      113.0469091211
H               198.1627904188       71.2437745985      113.5846680076
H               198.0717848194       71.6575741122      111.8641682075
H               198.9654446474       70.2153007082      112.3727988512
N               200.2308043192       69.9014435182      107.0436043824
C               198.7954172086       69.6840847722      107.0968929412
C               198.3940746346       68.6233686152      106.0629916149
O               197.5104417219       67.8082075944      106.2890487032
C               198.0579464431       71.0028530193      106.9012666966
C               198.1575297412       71.8412548596      108.1737672134
O               198.0704781846       71.3416609045      109.2834601491
N               198.3728138129       73.1482204176      107.9700675616
H               200.5924902891       70.8514320698      107.0377286706
H               198.5247510706       69.2793110996      108.0845848917
H               198.4644672740       71.5493700195      106.0518429469
H               196.9946674317       70.8188553652      106.7311064641
H               198.3300680297       73.7949332739      108.7545646092
H               198.3005404762       73.5405777346      107.0442217879
N               197.4704719281       64.8900558261      106.6265673580
C               196.0909315062       64.5841080630      106.9589019343
C               195.9471139993       63.7389393385      108.2210330435
O               194.9167779309       63.1087587506      108.4326173486
C               195.3308330257       63.8904879947      105.8151174610
C               195.3340102979       64.6618522067      104.4938691959
C               194.4202883303       63.9522295498      103.4939533666
C               194.8574477316       66.0961573778      104.6922761004
H               197.6885863159       65.8779041383      106.5451723920
H               195.6102729826       65.5431173001      107.1799803327
H               195.7739457253       62.9082238120      105.6674642250
H               194.3023615868       63.7593040760      106.1530352332
H               196.3501671081       64.6863066851      104.0900637931
H               194.4095593243       64.4958770058      102.5540104335
H               194.7607469641       62.9420708672      103.2875761243
H               193.4031431472       63.9079223979      103.8755525068
H               194.7797360537       66.5896704258      103.7307165117
H               193.8815078425       66.1039507412      105.1705388109
H               195.5529529892       66.6715365043      105.2978975995
N               194.8371890946       63.7701450882      111.1879440701
C               193.5845422428       63.6941762043      111.9169009475
C               192.5016665051       63.0034945564      111.0848682956
O               191.8019109122       62.1063828178      111.5384495411
C               193.1202170630       65.1041045127      112.3000369400
C               194.0269599126       65.7858844312      113.3206363017
C               193.8259061628       67.3392247648      113.2612871754
O               194.0728774992       67.8839181171      112.1649760251
O               193.4433111568       67.8991239958      114.3048955605
H               195.2211115148       64.6917082892      111.0463231829
H               193.7311166165       63.0898312643      112.8222661126
H               193.0836641843       65.7343455749      111.4056968279
H               192.1099983223       65.0476241171      112.7096020151
H               193.8209759251       65.4463832040      114.3358361656
H               195.0809531482       65.6051724276      113.0971017102
N               192.3602361012       63.4819220495      109.8492827981
C               191.3465668852       62.9801087947      108.9404079793
C               191.5558650594       61.4810269951      108.6982242149
O               190.6280839607       60.6861811363      108.7757257258
C               191.4002462229       63.7588027798      107.6343914587
H               192.9886335071       64.1932716453      109.5080650011
H               190.3645166871       63.0880998962      109.4177341155
H               190.6344503799       63.3959762812      106.9559545686
H               191.2347960685       64.8164689722      107.8294796133
H               192.3757575387       63.6334721575      107.1728291729
N               192.5813783310       66.0326649335       99.6099194083
C               191.7992161946       67.2287635233       99.8565488422
C               191.4072268475       67.8757924338       98.5313887024
O               192.2358944932       68.0486645744       97.6397244807
C               192.5723087843       68.2835641305      100.6751789749
C               191.6074430556       69.3756929473      101.1289806600
C               193.2490830710       67.6310525491      101.8738132225
H               193.4613448333       66.1561976562       99.1322587719
H               190.9075001421       66.9123920227      100.4048554810
H               193.3359261327       68.7355221430      100.0326487102
H               192.1468993302       70.1285218112      101.6955720001
H               191.1395555733       69.8594914088      100.2756403862
H               190.8239726286       68.9561473936      101.7555825756
H               193.7297152404       68.3911636365      102.4831780413
H               192.5164364582       67.1008552769      102.4784233969
H               194.0034946749       66.9195657336      101.5482053872
N               190.1400927899       68.2808128815       98.4639455843
C               189.5835865808       68.8953419388       97.2857852047
C               188.6210409368       70.0225404619       97.6504893118
O               188.0223726128       70.0698641283       98.7164477794
C               188.8261459615       67.8668041474       96.4115727292
C               189.7682147285       66.7747892255       95.9152330318
C               187.6437149174       67.2617212132       97.1618631054
H               189.4912084458       68.0562001816       99.2107454606
H               190.4096927858       69.3024830978       96.6965749695
H               188.4615089347       68.4242489811       95.5424918547
H               189.2894861578       66.2095170101       95.1206651974
H               190.6770502382       67.2124714029       95.5135726860
H               190.0396070970       66.0972778933       96.7208344231
H               187.1435767221       66.5215750220       96.5426983734
H               187.9802577452       66.7805291526       98.0771258523
H               186.9135159044       68.0257072884       97.4180824925
N               188.4846380209       70.9319672402       96.6799574059
C               187.4714137725       71.9687978537       96.6388108916
C               186.4192407207       71.4672077211       95.6487118535
O               186.7247427587       71.0832562682       94.5169817892
C               188.1453367626       73.2884081665       96.2416619391
C               187.2471943210       74.5197430934       96.3558042177
C               186.2489533935       74.7026620166       95.2148092027
C               186.9146793506       75.0230782906       93.8832376564
N               185.8872555056       75.1743144023       92.8258212599
H               189.0051107258       70.7991025814       95.8206170141
H               187.0232279514       72.0442839585       97.6335889911
H               188.9858025723       73.4143670738       96.9263718258
H               188.5494114025       73.1872810526       95.2344819145
H               186.6844389790       74.4703425999       97.2892060413
H               187.8865574229       75.4015941037       96.4012905208
H               185.6413617654       73.8064242888       95.1048072053
H               185.5776423602       75.5162169251       95.4918426232
H               187.4756087715       75.9553755078       93.9525001333
H               187.5951292342       74.2177201062       93.6009218222
H               186.3319429593       75.2392526750       91.9070444460
H               185.2265430363       74.3836537372       92.8290342428
H               185.3114044942       76.0798228648       92.9391228889
N               185.1790698848       71.3929618612       96.1265077879
C               184.0859110709       70.8144296858       95.3731969966
C               183.5105120472       71.8297326018       94.3762048677
O               183.6157571343       73.0356211003       94.5603175734
C               182.9596597731       70.3841077431       96.3162613040
C               183.3975583214       69.3528029048       97.3502782926
S               184.1342325123       67.8428431996       96.6243700224
C               182.6944631907       67.2040553106       95.7267608105
H               184.9862159681       71.7536116782       97.0535524834
H               184.4668483261       69.9441732650       94.8266975514
H               182.5967248858       71.2686951046       96.8449245423
H               182.1456563898       69.9803432997       95.7122849829
H               184.1665679340       69.7542912994       98.0091585796
H               182.5433953607       69.0316916919       97.9457425832
H               182.8895596786       66.1543790329       95.5298928120
H               181.8102493874       67.3068916611       96.3470368934
H               182.5864256980       67.7354321389       94.7856614797
N               182.9477329564       74.0599421773       99.6691490390
C               184.0833960463       74.0520718111      100.5601249473
C               184.9831414833       72.8360549587      100.2999707039
O               185.0088145884       72.2825396592       99.2084960187
H               182.1705487378       73.4694365221       99.9219917972
H               184.6786137440       74.9465286662      100.3474353536
H               183.7370505701       74.0757596928      101.5922917386
N               185.7643225765       72.4986756747      101.3341390536
C               186.6650288164       71.3739805660      101.2653062925
C               185.9312417026       70.0657501105      101.5509200271
O               184.9776673840       69.9778101470      102.3184298066
C               187.7900037861       71.5146609051      102.2957577365
C               188.6212178490       72.7947018493      102.1415688007
C               189.6544562622       72.8576342803      103.2652102056
C               189.3185934919       72.8602389491      100.7858950758
H               185.5618213769       72.8457448134      102.2595460617
H               187.0675194655       71.3232517399      100.2512005349
H               187.3414318247       71.4962587435      103.2935211987
H               188.4489496210       70.6489295362      102.2029557109
H               187.9555321644       73.6578737264      102.2367956307
H               190.1949047030       73.8007270048      103.2392113694
H               189.1789583557       72.7560262482      104.2389550077
H               190.3749671019       72.0503878303      103.1558244970
H               189.9666157373       73.7315098033      100.7460716272
H               189.9274211118       71.9725647286      100.6339124295
H               188.5958364119       72.9281304836       99.9786543445
N               186.4549243089       69.0217645624      100.9054743565
C               186.0873579120       67.6632998084      101.1957169814
C               187.3590935993       66.8270905833      101.2279217215
O               188.3349843934       67.1039524318      100.5387222561
C               185.1304525458       67.0753737073      100.1528181530
H               187.2096850069       69.1543273528      100.2417808707
H               185.5916210753       67.6485676319      102.1700377704
H               184.8977731984       66.0481043309      100.4206393696
H               184.2106466407       67.6538011789      100.1444161470
H               185.5700179624       67.1001351617       99.1591846806
N               187.3070154639       65.7928161933      102.0686596736
C               188.2597009787       64.7056454543      101.9765495823
C               187.6745854011       63.7152829698      100.9650915316
O               186.5398929662       63.2589584101      101.0983322572
C               188.5394293555       64.0589451134      103.3356458976
C               189.5210558021       62.9076075202      103.1422383333
C               189.1359709550       65.0955214416      104.2811517772
H               186.4380826299       65.6344485862      102.5724151154
H               189.1876725479       65.1188551321      101.5746119739
H               187.5978273525       63.6774303049      103.7445511768
H               189.8046809322       62.4952072300      104.1066273399
H               189.0872050325       62.1139283966      102.5379723310
H               190.4093557140       63.2801782689      102.6368080355
H               189.2785202886       64.6641164155      105.2668807783
H               190.0983908183       65.4231075467      103.8978957414
H               188.4848035332       65.9596555709      104.3646550459
N               182.5459078105       66.1708104839      103.9724459453
C               182.7096742587       67.5822812192      104.2676202183
C               183.8450692511       67.7657536538      105.2838311032
O               183.9503806108       67.0329018544      106.2624390579
C               181.4024549886       68.1667667592      104.8135185161
O               181.0226886081       67.4737550684      105.9731295765
H               181.8287540993       65.6771930476      104.4933148878
H               182.9823115538       68.1066574052      103.3444093171
H               181.5610849555       69.2345358213      105.0198116907
H               180.6244658360       68.0743473645      104.0407042028
H               180.2166756338       67.8991758486      106.3651761116
N               184.6948966182       68.7600974489      105.0161885258
C               185.8508016640       68.9904836098      105.8512346973
C               186.0752600600       70.4848584334      106.0277874051
O               185.7788203579       71.3090798029      105.1744111176
C               187.0932519694       68.3479463064      105.2343240404
H               184.6338900661       69.3228182531      104.1721374312
H               185.6554390375       68.5448373526      106.8307870098
H               187.9357667797       68.4574958049      105.9095426544
H               186.8996946962       67.2894334004      105.0819863056
H               187.3183525190       68.8178964988      104.2789075034
N               186.6322121867       70.7930778627      107.2034173227
C               186.8818070447       72.1570836703      107.5944114062
C               188.3502959302       72.3251471629      107.9577941828
O               188.9775230975       71.4491538263      108.5403344943
C               185.9788295715       72.5364025152      108.8098732443
O               184.6456221884       72.1763260897      108.5549418259
C               186.0082157705       74.0396031942      109.0677538707
H               186.9351204696       70.0548481060      107.8280493006
H               186.6060248710       72.7790184402      106.7364011650
H               186.3650366537       71.9916979767      109.6857379403
H               184.5280007742       71.2080593306      108.6473268528
H               185.3514844229       74.2606473573      109.9037151524
H               187.0105409978       74.3817703040      109.3048460292
H               185.6335482035       74.5645817012      108.1932776338
N               188.8962203584       73.4844169291      107.5607471589
C               190.2101294400       73.9067989328      108.0042287264
C               190.0725590333       74.5355047959      109.3914357613
O               189.0910978439       75.2053592159      109.6887335748
C               190.7834413780       74.9419483150      107.0305511513
C               192.2784581478       75.1433507826      107.2825129061
C               192.8046692898       76.3182818053      106.4730827072
O               192.9777581117       76.2798154677      105.2673691325
N               193.0323091514       77.4245709214      107.2018111076
H               188.2909752254       74.2180314734      107.2200891193
H               190.8583217888       73.0298004928      108.0621289864
H               190.6354511022       74.5934125740      106.0079138498
H               190.2507217182       75.8868357980      107.1615565052
H               192.4558303215       75.3225186762      108.3418020052
H               192.8081557351       74.2338286562      106.9927368903
H               192.9465099252       77.4135638591      108.2039716166
H               193.4020228395       78.2474639218      106.7522317262
N               191.0924359973       74.3278112185      110.2288109375
C               191.1203842082       74.9458786608      111.5343552133
C               192.2762647799       75.9631148166      111.5505829791
O               192.9163338719       76.1891847273      110.5304091073
C               191.1779783861       73.8939276005      112.6617698270
C               190.3424569116       72.6758142256      112.2691916276
O               190.8306962470       71.6764006621      111.7407683981
N               189.0409784993       72.7655701470      112.5447520722
H               191.8479074269       73.7044001730      109.9646087943
H               190.1800966870       75.5162830128      111.5899960091
H               192.2063207658       73.5624004423      112.8033591375
H               190.7851423762       74.3088576894      113.5877722100
H               188.4361552376       71.9981652066      112.2865387008
H               188.6297305956       73.5954473034      112.9390990557
N               192.4989923497       76.6114564442      112.7099103022
C               193.2330328415       77.8649049317      112.7123696645
C               194.6203580564       77.8319361280      112.0560776996
O               195.1027996018       78.8993379061      111.6945356694
C               193.3368037161       78.4838122632      114.1285600551
C               193.1687465450       77.5350990927      115.3187496738
C               194.1899751321       76.3947675197      115.3460474345
C               193.8272913603       75.2913672360      116.3353480617
N               193.8371719433       75.7913724012      117.7405197318
H               191.8077926956       76.5160087749      113.4404173875
H               192.6961023383       78.5817339337      112.0711806316
H               194.3063849198       78.9801321997      114.1843291151
H               192.5745090916       79.2597655491      114.2117993176
H               193.2783084251       78.1668944697      116.2010960723
H               192.1563884823       77.1275538030      115.3195324431
H               194.2480055629       75.9366422833      114.3597344552
H               195.1843755833       76.7872583586      115.5605345610
H               192.8334878281       74.9033941070      116.1116922822
H               194.5474580457       74.4775311259      116.2378140984
H               193.6429113238       75.0225769946      118.3995692537
H               194.7629074805       76.1854018273      117.9659512720
H               193.1233890308       76.5262935356      117.8586286879
N               195.2908119151       76.6762755983      111.9613102370
C               196.6298312775       76.6158022834      111.4221043579
C               196.7397474300       75.7599175095      110.1612300794
O               197.8389322421       75.4083842852      109.7294759623
C               197.6018100205       76.0557343399      112.4563184603
C               197.2157520953       74.5847639737      112.7888322789
O               196.3860979372       74.0483122240      112.0161636859
O               197.7299287531       74.0690195883      113.7909692361
H               194.8964533076       75.7852080883      112.2240704257
H               196.9111873693       77.6414545581      111.1490091470
H               198.6098738076       76.0209924181      112.0385368270
H               197.6243740648       76.6473597051      113.3710113977
N               195.6020851562       75.5496949145      109.4811363344
C               195.5923882739       74.7493437194      108.2877972083
C               195.3158942188       73.2583932547      108.4999120244
O               195.1403992384       72.5250974823      107.5314159842
H               194.7088942495       75.7686161598      109.9079249706
H               194.8356647703       75.1223063965      107.5969377001
H               196.5659752061       74.8532135067      107.8036623482
N               195.2356569111       72.8447760145      109.7646413981
C               194.7912045736       71.5010794746      110.0561660515
C               193.4520351095       71.3120743982      109.3459158330
O               192.7193677542       72.2675826147      109.1160192810
C               194.6029030064       71.3199750232      111.5720902290
O               193.5661329817       72.1073725759      112.0847877535
H               195.5786393362       73.3977964068      110.5466668766
H               195.5201055107       70.7605920777      109.6996350239
H               194.4513919749       70.2545853566      111.7927794525
H               195.5163656716       71.6565703293      112.0718298987
H               192.6966793626       71.7321716327      111.8316412545
N               193.1327379929       70.0628258534      109.0137787200
C               191.8737086093       69.7591478689      108.3654038640
C               191.2496828366       68.5462879443      109.0506790727
O               191.8427954081       67.4901257778      109.2267376355
C               192.0556897379       69.5602912135      106.8438098307
C               190.7105691429       69.1786123989      106.2171794615
C               193.1482072723       68.5399773703      106.5504954720
C               190.7413804209       69.2104313124      104.6938803158
H               193.7032457158       69.2844435113      109.3068769789
H               191.2224627813       70.6237300141      108.5287225489
H               192.3738316757       70.5301734396      106.4435338749
H               190.4301059349       68.1809520405      106.5623835772
H               189.9550309169       69.8792615955      106.5812207779
H               193.2422759044       68.3846196467      105.4816681242
H               194.1073905687       68.8961556887      106.9207420632
H               192.9225773749       67.5944802935      107.0370228832
H               189.7390965567       69.0768637133      104.2986904145
H               191.1281721811       70.1656662124      104.3505907077
H               191.3743951262       68.4202068276      104.3044874149
N               189.9899703610       68.7653774658      109.4457735070
C               189.1846052310       67.8058117254      110.1597411706
C               187.9573648741       67.4652763308      109.3060294110
O               187.5277754209       68.2500550449      108.4746296295
C               188.7760337617       68.4024431840      111.5403666773
O               188.5955892998       69.7910072913      111.5077335975
H               189.5244002121       69.6375301071      109.2125845225
H               189.7883164601       66.9073533769      110.3190268665
H               187.8202559860       67.9726484016      111.8545539962
H               189.5461041036       68.1323599190      112.2749880941
H               189.4622997653       70.2295012489      111.4049529138
N               187.4543341806       66.2303839966      109.4836558749
C               186.1899494065       65.8670914422      108.8724280130
C               185.0665569986       66.2945459780      109.8168884369
O               185.2036995737       66.2614474817      111.0367505345
C               186.1481308775       64.3632376254      108.5587896047
C               187.2361484188       64.0374717092      107.5276151823
C               184.7615067923       63.9902359908      108.0456763769
C               187.4729593981       62.5418540216      107.3516116657
H               187.6739618947       65.7342603306      110.3357086120
H               186.1021175738       66.4372715218      107.9434756505
H               186.3505898155       63.8188999483      109.4884343423
H               186.9455578447       64.4851391932      106.5754356711
H               188.1644989484       64.5132776480      107.8480272793
H               184.7596651073       62.9658700826      107.6862165630
H               184.0145613657       64.0879331275      108.8295965392
H               184.4779980780       64.6547081069      107.2317887171
H               188.3128884411       62.3754667956      106.6830687046
H               187.6972273876       62.0770546748      108.3084199336
H               186.6025709360       62.0529434091      106.9242626607
N               183.9596529880       66.7233272483      109.2094179477
C               182.8185969507       67.1869460826      109.9627954500
C               182.0645964606       65.9667335839      110.5294213103
O               182.1501103652       64.8675308563      110.0038966065
C               181.9454248907       68.0603859475      109.0696270249
C               182.6612808937       69.3269511874      108.6255358307
O               183.8439992442       69.5522651429      108.8521064642
N               181.8749522857       70.1792820612      107.9619580512
H               183.9124811330       66.7708350534      108.1978695652
H               183.1968347306       67.7715597309      110.8128269080
H               181.6802788967       67.5131580820      108.1614497882
H               181.0258529675       68.3372569676      109.5835068076
H               182.2519455195       71.0585913692      107.6415466207
H               180.9114436626       69.9508900765      107.7688513086
H               192.3989054654       70.5210314252       95.6031969873
H               195.3379777983       71.7257908135       97.6761598832
H               195.8916708438       73.1468801956       99.5778450019
H               198.1754780880       73.9723829988      102.3342385423
H               200.0620110132       74.0338039214      104.9772610537
H               201.3050210569       73.7892061304      108.3063572152
H               200.2425528940       72.5448248638      110.9208402909
H               200.8668686677       71.8887131023      114.7839196976
H               200.6191246133       69.5208019828      107.7607650135
H               198.8586250034       68.5866110419      105.1782081185
H               198.0132848311       64.5608674973      107.2645244071
H               196.6960714858       63.6963231241      108.8822792470
H               195.4699098333       63.3060589123      111.6287257488
H               192.4656462355       61.1334310265      108.4713426287
H               192.7827569885       65.6385058418      100.3935553229
H               183.0373549565       71.5109838530       93.5549122263
H               182.6137134985       74.8939430405       99.6155434248
H               188.2174122932       63.4267962453      100.1763492575
H               182.3316560445       66.0683117287      103.1043502214
H               181.4915894224       66.0665906026      111.3428655369
