 100 
 
N                59.1458150207       23.6802828578       24.1740272033
C                58.8790188720       24.0273795285       25.5542930306
C                59.2784968852       22.8596166354       26.4708192749
O                58.7835212615       21.7465723301       26.3725468961
C                57.4016685390       24.3533387401       25.7555932522
C                56.9569272788       25.5438604737       24.9236762879
S                57.7666976630       27.0919769799       25.4377145357
C                57.0864263645       28.1464519475       24.1245426267
H                58.3607353406       23.4314516505       23.5837411556
H                59.5040067218       24.8984783720       25.7954879416
H                56.8235586030       23.4723014362       25.4615495761
H                57.2431719999       24.5527926253       26.8178196554
H                57.1969087333       25.3857005685       23.8719404690
H                55.8812507663       25.6898671326       25.0296548605
H                57.5588494832       29.1172529716       24.2046465642
H                57.3107740592       27.6962758888       23.1604945199
H                56.0134557081       28.2403014144       24.2638683687
N                52.9552373005       34.5429916606       25.3361862372
C                53.1683047672       33.1070163632       25.3061224855
C                54.6931055265       32.8885404336       25.3600209978
O                55.4134549342       32.9470929680       24.3773436871
C                52.5548640264       32.4769748764       24.0492037385
C                51.0567184892       32.7764878239       23.8953682640
C                52.8348825784       30.9740620017       24.0392587510
C                50.1777524468       32.2377575147       25.0182694477
H                52.9565614780       35.0234600839       24.4474385265
H                52.7074585772       32.6784546662       26.2036068377
H                53.0611382178       32.9194237387       23.1821303157
H                50.9162057377       33.8562152969       23.8110591294
H                50.7317936071       32.3377769971       22.9486665359
H                52.3117373913       30.5054003085       23.2098187285
H                53.8986586857       30.7908076842       23.9109724211
H                52.5166600970       30.5073867703       24.9679861818
H                49.1321963343       32.4121264823       24.7774997865
H                50.3212480868       31.1699464390       25.1507005103
H                50.3992036740       32.7295231998       25.9601224186
N                55.1513621764       32.7182100858       26.6116603892
C                56.5146228413       32.3878965956       26.9400367919
C                56.5012984154       31.0047724202       27.5934368976
O                55.4404977464       30.5050136962       27.9556164179
C                57.1131121189       33.4425660943       27.8952006759
O                57.2972878386       34.6310524102       27.1726768799
H                54.4843473021       32.4927100104       27.3371604708
H                57.0919107575       32.3867355894       26.0115177158
H                56.4153568225       33.5987242382       28.7326089619
H                58.0719235577       33.0731413105       28.2856089206
H                57.7985365439       35.2573781082       27.7116715930
N                57.6822194634       30.4343765919       27.8400906347
C                57.7752158867       29.1812929929       28.5774229493
C                56.8990707966       29.2076355866       29.8392542232
O                56.3096654398       28.2147779720       30.2244209350
C                59.2204670913       28.8942097384       28.9651965447
H                58.5368915430       30.8303514645       27.4774854209
H                57.3997832270       28.3629311770       27.9524726859
H                59.2649686114       27.9524194651       29.5064578229
H                59.8413333107       28.8282495244       28.0747343247
H                59.6042054804       29.6714597482       29.6214550473
N                56.8523688774       30.3900936827       30.4769770813
C                56.1816029737       30.5657869750       31.7430887329
C                54.6522712269       30.7059252024       31.6313922919
O                53.9816098835       30.8095729231       32.6476532593
C                56.7176310179       31.7941006653       32.4822208368
C                58.1797776310       31.6777440180       32.9089798779
C                58.3634812491       30.5240781992       33.9454381686
O                58.2055824437       30.8213618648       35.1466527822
O                58.6508095466       29.4016839289       33.4808595780
H                57.4010895985       31.1667460210       30.1429830113
H                56.3643573002       29.6781682939       32.3617698657
H                56.5874158812       32.6784064417       31.8497089320
H                56.1068005809       31.9282456770       33.3783419731
H                58.8333586235       31.4883786426       32.0545098375
H                58.4795555147       32.6047575364       33.3990331690
N                54.1521162575       30.7209117909       30.3922659120
C                52.7534534878       30.9498158654       30.0819763055
C                52.3277157830       30.0687553253       28.8924833587
O                51.9613481060       30.5495683536       27.8206046972
C                52.5432748620       32.4351611144       29.7812956751
C                52.7261193657       33.2802364399       31.0373026686
C                52.3727532363       34.7425869221       30.7971479650
N                52.4560259320       35.4614617560       32.0514409199
C                52.2838750841       36.7659552020       32.2115731646
N                52.1047310586       37.5842720310       31.1725881687
N                52.3767388741       37.2567514262       33.4480145555
H                54.7601137126       30.5948672880       29.5890022319
H                52.1606028025       30.6921648129       30.9736651064
H                53.2281853357       32.7766837920       29.0028690655
H                51.5354227634       32.5586769560       29.3955564040
H                52.0973078278       32.8750618242       31.8355485660
H                53.7613579645       33.2198677195       31.3785771671
H                53.0705459592       35.1638504440       30.0693563759
H                51.3619224505       34.8078215968       30.3806053481
H                52.3916679642       34.8963998025       32.9023589172
H                52.0823064644       37.2065885779       30.2397230729
H                52.0177646986       38.5783068139       31.3169234033
H                52.3131545455       36.5917956546       34.2138321183
H                52.1565444841       38.2179141013       33.6425410913
H                59.5369347657       24.3767310007       23.7593160636
H                59.9686157360       22.9953884072       27.1816652482
H                52.1543709694       34.7201856486       25.7066122221
H                52.3437059076       29.0724833037       28.9772558474
