295
Properties=species:S:1:pos:R:3 pbc="F F F"
N      55.24600000      25.40700000       5.19100000 
C      56.56200000      25.31800000       6.37400000 
C      55.80100000      26.22200000       7.69300000 
O      56.56200000      26.06400000       8.64900000 
C      57.83400000      26.05300000       5.92500000 
C      58.32500000      25.21500000       5.02800000 
S      59.47400000      23.92600000       6.04600000 
C      58.59100000      22.29900000       5.73600000 
H      55.62000000      24.70500000       4.71100000 
H      54.45400000      24.91900000       5.74200000 
H      55.12200000      26.04800000       4.94200000 
H      56.60100000      24.52800000       6.75200000 
H      57.32700000      27.01100000       5.18200000 
H      58.15200000      26.50400000       6.54400000 
H      58.07400000      24.73700000       4.29300000 
H      59.36400000      25.85000000       4.48000000 
H      59.16100000      21.60800000       6.01500000 
H      57.75800000      22.30400000       5.75100000 
H      58.83700000      22.13900000       4.34700000 
N      54.97400000      26.94700000       7.97900000 
C      54.29000000      27.75500000       8.79100000 
C      54.00800000      26.62600000       9.56600000 
O      54.19200000      27.04800000      11.36900000 
C      53.35500000      28.58300000       8.39500000 
H      54.21100000      27.15600000       6.59500000 
H      55.23200000      28.19100000       9.21100000 
H      52.94500000      29.22000000       9.39000000 
H      53.56500000      29.28100000       7.77500000 
H      52.37100000      28.12000000       8.11600000 
N      53.28100000      25.49800000       9.71800000 
C      52.92400000      24.75900000      10.72300000 
C      54.03400000      23.91200000      11.03400000 
O      54.02800000      23.59700000      12.61000000 
C      51.89900000      23.54400000       9.89600000 
C      51.19600000      22.76800000      11.01300000 
O      51.52800000      21.70200000      11.22500000 
N      50.37500000      23.06500000      11.52500000 
H      53.15300000      25.37200000       8.56200000 
H      52.44100000      25.07700000      11.24000000 
H      51.14000000      24.20100000       9.34400000 
H      52.44300000      22.92700000       9.24700000 
H      49.63500000      22.83800000      12.34200000 
H      49.77500000      24.41000000      11.32300000 
N      55.29800000      23.55100000      10.36100000 
C      56.28600000      23.22100000      11.11200000 
C      56.93200000      23.65000000      11.83800000 
O      57.56200000      23.53800000      13.06100000 
C      57.25600000      22.44600000       9.63800000 
C      58.54400000      22.04700000      10.24000000 
C      58.64000000      20.51600000      10.87000000 
C      59.88700000      19.97700000      10.91800000 
N      59.85400000      18.81400000      11.83900000 
H      55.09900000      23.82200000       9.51200000 
H      56.09000000      22.05100000      11.60900000 
H      56.76600000      21.97800000       9.26800000 
H      57.45000000      23.47600000       9.22400000 
H      59.20000000      21.88800000       9.32400000 
H      59.16300000      22.60700000      10.80900000 
H      57.92500000      20.70800000      11.89400000 
H      57.93100000      19.96300000      10.24400000 
H      60.38100000      19.90900000      10.35100000 
H      60.48100000      20.66600000      11.79600000 
H      60.74600000      18.24500000      11.93400000 
H      59.34100000      18.74200000      12.72100000 
H      59.24600000      17.97300000      11.21100000 
N      57.23200000      25.34400000      11.73400000 
C      57.61000000      26.47900000      12.43900000 
C      57.22200000      26.12500000      14.05600000 
O      57.61400000      26.37200000      14.75900000 
C      57.97100000      27.47300000      11.78900000 
H      56.72900000      25.57500000      10.63800000 
H      58.81600000      25.79200000      12.74700000 
H      58.36800000      28.30500000      12.53100000 
H      58.42600000      27.48000000      10.90200000 
H      56.76200000      27.96700000      11.57200000 
N      55.86500000      26.41600000      13.67300000 
C      54.78800000      26.46800000      15.17300000 
C      55.09000000      25.02300000      15.50400000 
O      55.23300000      25.17000000      17.35100000 
C      53.70000000      26.99000000      15.28100000 
C      52.35500000      26.17300000      14.56700000 
C      52.92400000      27.74600000      16.14400000 
H      55.16800000      26.42400000      13.04600000 
H      55.67600000      27.23100000      15.81400000 
H      53.76200000      27.99900000      14.24200000 
H      51.72800000      26.59600000      14.28500000 
H      52.93900000      25.60200000      13.39300000 
H      52.36400000      25.34600000      15.18400000 
H      52.34900000      28.10800000      16.27900000 
H      53.00600000      26.86300000      17.12600000 
H      53.91300000      28.39000000      16.79700000 
N      55.11300000      24.27300000      15.51500000 
C      55.29000000      22.67100000      15.97600000 
C      56.52400000      22.65400000      16.56600000 
O      56.63000000      22.23900000      17.93300000 
C      55.17800000      21.71400000      14.81200000 
C      55.72100000      20.31800000      15.47800000 
O      54.50000000      19.53900000      16.10900000 
N      56.82700000      19.73200000      15.50500000 
H      54.92400000      23.97900000      14.09000000 
H      54.56600000      22.57900000      16.60000000 
H      54.44800000      21.55900000      14.40600000 
H      56.06300000      21.79200000      14.14000000 
H      56.98900000      18.92800000      15.88300000 
H      57.56000000      20.26400000      15.14500000 
N      57.90700000      23.21300000      16.29800000 
C      58.90600000      23.10500000      16.66600000 
C      59.11000000      23.93100000      17.88300000 
O      59.86300000      23.77200000      18.84000000 
C      59.98600000      23.27500000      15.50800000 
C      60.19200000      22.25300000      14.81100000 
O      59.40600000      20.94100000      14.83400000 
O      60.93900000      22.25300000      13.59800000 
H      57.62200000      23.54600000      14.96300000 
H      59.09500000      22.07800000      17.20100000 
H      60.01400000      24.12400000      15.14700000 
H      61.18700000      23.24200000      16.23700000 
N      58.47300000      25.16300000      17.64000000 
C      58.47600000      26.29200000      19.02600000 
C      57.79500000      25.57900000      20.30300000 
O      58.12900000      25.72400000      21.19200000 
C      57.86000000      27.33600000      18.44700000 
C      57.18900000      28.40700000      19.53000000 
C      59.07900000      29.25900000      19.93100000 
C      56.56300000      28.76100000      19.83900000 
C      58.30200000      30.23700000      21.02000000 
C      56.08900000      29.82900000      21.00700000 
C      57.48400000      30.41000000      21.35600000 
H      57.95000000      25.36400000      17.01500000 
H      59.41800000      26.32200000      19.26400000 
H      58.46500000      27.87200000      17.57700000 
H      56.75100000      27.23500000      17.99800000 
H      59.59700000      29.02600000      19.66000000 
H      55.53400000      28.31200000      19.63700000 
H      59.48600000      30.76900000      21.36100000 
H      55.22100000      30.03400000      21.33900000 
H      57.14900000      31.35800000      22.29100000 
N      56.48000000      24.76700000      19.71200000 
C      55.66500000      24.18500000      20.80100000 
C      56.60200000      23.00100000      21.70500000 
O      56.62700000      22.85400000      22.55600000 
C      54.59100000      23.70100000      20.21200000 
C      53.30400000      24.82100000      20.61000000 
C      53.77700000      22.50100000      20.53700000 
C      52.32900000      24.69400000      19.51400000 
H      56.24300000      24.79100000      18.94400000 
H      55.66400000      24.77600000      21.68700000 
H      54.56300000      23.69800000      19.29100000 
H      53.12000000      24.69800000      21.67300000 
H      53.83500000      25.76500000      20.48000000 
H      53.03900000      22.08700000      20.25400000 
H      54.72000000      21.47500000      20.19300000 
H      53.95700000      22.14100000      21.70200000 
H      51.37500000      25.59400000      20.06700000 
H      52.33600000      24.82000000      18.82800000 
H      51.52600000      23.74800000      19.89800000 
N      57.31000000      22.21700000      20.74200000 
C      57.89100000      20.89300000      21.22100000 
C      59.34400000      21.37900000      22.16500000 
O      59.48200000      20.67300000      22.79400000 
C      58.21000000      20.14400000      20.06700000 
C      58.41100000      18.59400000      20.53900000 
C      57.03400000      17.95500000      21.01900000 
C      59.44600000      17.67800000      19.51600000 
H      57.20700000      22.25900000      19.65900000 
H      57.26400000      20.49400000      21.91000000 
H      57.64100000      20.03300000      19.39500000 
H      59.21700000      20.28600000      19.65600000 
H      58.95900000      18.48100000      21.46100000 
H      57.14100000      16.85600000      21.13400000 
H      56.50000000      18.42900000      21.43300000 
H      56.41400000      17.88500000      19.74300000 
H      59.29100000      16.68800000      19.82700000 
H      58.71200000      17.76700000      18.56500000 
H      60.11700000      18.05600000      19.43500000 
N      59.68700000      22.38000000      21.77600000 
C      61.24900000      22.75900000      22.37600000 
C      60.59400000      23.20400000      23.57400000 
O      62.07200000      23.37400000      24.75600000 
C      61.80900000      24.05000000      21.72000000 
H      59.55100000      22.97500000      21.05800000 
H      61.65400000      22.00700000      22.46300000 
H      62.65000000      24.20500000      22.15000000 
H      61.94900000      23.60700000      20.61600000 
H      61.09500000      24.83700000      21.58600000 
N      48.55700000      17.03900000      17.24200000 
C      49.15100000      18.37900000      16.12600000 
C      48.30300000      19.80700000      16.35500000 
O      47.68600000      19.89800000      16.54400000 
C      49.66100000      17.75400000      15.04300000 
C      50.75500000      16.80200000      14.73500000 
O      51.78900000      17.25800000      15.41200000 
N      50.82000000      16.10400000      14.32900000 
H      47.19100000      17.74600000      16.74000000 
H      50.22900000      18.33400000      16.97100000 
H      48.67900000      17.42000000      14.46000000 
H      49.87100000      18.89900000      14.15400000 
H      51.42700000      15.24800000      14.02800000 
H      49.73100000      15.57900000      13.58500000 
N      49.48400000      21.05000000      15.98400000 
C      48.97700000      21.89500000      15.75300000 
C      47.92100000      22.53100000      14.97600000 
O      47.35500000      23.70900000      15.08200000 
C      50.23100000      23.22900000      15.57800000 
C      51.67000000      22.29100000      16.58700000 
C      50.80700000      20.78300000      15.57700000 
H      48.38500000      22.33500000      17.21100000 
H      50.24800000      23.32000000      15.08400000 
H      50.14100000      23.91900000      16.53100000 
H      52.09700000      22.39000000      15.88600000 
H      51.43900000      22.06100000      17.14900000 
H      51.09800000      20.67300000      14.68000000 
H      51.43400000      19.85700000      16.27300000 
N      47.64000000      21.60000000      14.10300000 
C      46.64500000      21.68800000      13.04200000 
C      45.10600000      22.28600000      13.54800000 
O      44.28400000      22.79900000      12.76800000 
H      47.90900000      20.84200000      14.01600000 
H      46.84800000      22.90500000      12.42500000 
H      46.50800000      21.21400000      12.45500000 
N      45.73200000      26.44800000      15.38900000 
C      46.12000000      27.53900000      14.16100000 
C      45.75300000      27.00200000      12.68800000 
O      45.83600000      26.06400000      12.54300000 
C      47.58600000      27.87400000      14.32700000 
C      48.21500000      28.12000000      15.78900000 
C      47.59600000      29.85400000      16.00700000 
C      48.90100000      27.48100000      16.40600000 
C      48.34100000      29.63500000      17.51600000 
C      49.18300000      27.92800000      17.48000000 
C      48.89000000      29.01700000      18.03400000 
H      46.26900000      25.37800000      14.83000000 
H      45.51300000      28.28000000      14.55500000 
H      48.25400000      26.98800000      13.85000000 
H      47.72200000      28.74800000      13.53900000 
H      47.30200000      30.08400000      15.70400000 
H      49.14400000      26.34400000      15.96300000 
H      47.96400000      30.88400000      17.83600000 
H      49.99200000      26.97600000      18.30300000 
H      49.36300000      29.29700000      19.30000000 
N      46.22100000      28.04600000       8.26100000 
C      47.19500000      27.66300000       7.54800000 
C      48.03200000      28.90600000       7.53000000 
O      49.52400000      28.52500000       7.14600000 
C      46.45200000      27.56600000       5.97300000 
C      47.46200000      27.10300000       5.01700000 
O      48.04200000      25.99800000       5.39100000 
O      47.54100000      27.56100000       3.97900000 
H      45.08000000      28.41200000       8.07300000 
H      47.55400000      26.97100000       7.66600000 
H      45.76300000      27.18600000       6.10700000 
H      46.21700000      28.68900000       5.70600000 
N      50.10200000      31.43200000      10.08900000 
C      50.40200000      31.54600000      10.98800000 
C      51.68400000      32.10100000      11.34300000 
O      52.76000000      32.26100000      10.76400000 
C      50.96700000      29.92900000      11.91600000 
C      50.93100000      30.35700000      13.15200000 
C      49.68800000      29.10400000      11.30400000 
H      50.95300000      30.93600000       9.10400000 
H      49.68100000      31.82400000      11.67300000 
H      51.82500000      29.76500000      11.42400000 
H      51.20300000      29.03100000      13.80900000 
H      51.82400000      30.87100000      13.66800000 
H      50.02800000      30.54300000      13.79200000 
H      50.01800000      28.09000000      11.94100000 
H      48.88800000      29.31700000      11.63600000 
H      49.83900000      28.80600000      10.39000000 
N      54.24200000      33.04800000      13.84700000 
C      54.56700000      32.66100000      15.24700000 
C      55.66600000      33.76300000      16.09300000 
O      55.53400000      33.76700000      16.88900000 
C      55.83100000      31.50700000      14.83000000 
C      56.86300000      31.90600000      14.20800000 
C      55.91200000      30.78300000      16.26800000 
H      54.35600000      32.76700000      13.02800000 
H      53.96000000      32.36900000      15.78900000 
H      54.93900000      30.70900000      14.21800000 
H      57.44500000      30.72800000      13.70000000 
H      56.66100000      32.27800000      13.03400000 
H      57.53800000      32.28500000      14.52000000 
H      56.58800000      29.67700000      15.84600000 
H      56.69200000      31.28700000      16.71200000 
H      55.16600000      30.52200000      16.75400000 
H      59.60233029      23.33245976      23.58344846 
H      48.83181538      16.24191924      16.92713691 
H      44.83894507      22.22862770      14.50997198 
H      46.11582996      26.71305810      16.15868745 
H      45.45584380      27.64414860      11.98135768 
H      45.99346897      27.39151154       8.83534700 
H      47.61756168      29.79097897       7.74225714 
H      49.40927801      30.85762087      10.07400455 
H      51.83210997      32.47069530      12.26027249 
H      53.34872281      33.09594165      13.74822013 
H      56.34469872      34.28583012      15.57723192 
