585
Properties=species:S:1:pos:R:3 pbc="F F F"
N      59.38200000      23.78200000      24.49000000 
C      59.17800000      24.17700000      25.85900000 
C      59.61700000      23.03900000      26.76700000 
O      59.09100000      21.90800000      26.65800000 
C      57.71200000      24.48000000      26.15100000 
C      57.04500000      25.52300000      25.24300000 
S      57.79000000      27.23000000      25.42700000 
C      56.55600000      28.18900000      24.36300000 
H      58.57700000      23.63000000      23.89000000 
H      59.80200000      25.06700000      26.06300000 
H      57.15000000      23.56600000      26.05000000 
H      57.62800000      24.79800000      27.18900000 
H      57.07800000      25.25400000      24.21500000 
H      56.00000000      25.61200000      25.54600000 
H      56.85100000      29.22100000      24.39700000 
H      56.59600000      27.81500000      23.35900000 
H      55.56900000      28.06700000      24.77900000 
N      60.51800000      23.31300000      27.72700000 
C      60.84200000      22.37900000      28.80100000 
C      60.51500000      23.12300000      30.10500000 
O      61.06200000      24.20100000      30.34200000 
C      62.26600000      21.86200000      28.76400000 
C      62.45500000      20.68000000      29.68700000 
O      61.44800000      20.04700000      30.13300000 
N      63.69500000      20.35000000      30.00100000 
H      60.96600000      24.20400000      27.74800000 
H      60.17400000      21.54900000      28.69000000 
H      62.48900000      21.51700000      27.75300000 
H      62.97500000      22.63400000      28.98800000 
H      63.85100000      19.54500000      30.60300000 
H      64.49000000      20.81900000      29.68700000 
N      59.57400000      22.57700000      30.83400000 
C      58.89500000      23.21400000      31.95700000 
C      58.69700000      22.17300000      33.02000000 
O      58.42900000      20.99500000      32.72600000 
C      57.51600000      23.80200000      31.49000000 
C      56.64700000      22.79400000      30.81000000 
C      56.88300000      22.41100000      29.49600000 
C      55.62400000      22.11300000      31.50000000 
C      56.19600000      21.35900000      28.91500000 
C      54.94400000      21.07300000      30.92700000 
C      55.23300000      20.67300000      29.62400000 
O      54.53800000      19.60900000      29.09500000 
H      59.23000000      21.66300000      30.60500000 
H      59.50700000      24.01100000      32.31300000 
H      57.03400000      24.25300000      32.34600000 
H      57.75500000      24.62500000      30.80800000 
H      57.60500000      22.93100000      28.93100000 
H      55.39700000      22.39500000      32.52400000 
H      56.41300000      21.07500000      27.89200000 
H      54.17800000      20.53900000      31.48100000 
H      54.78700000      19.34000000      28.18800000 
N      58.79000000      22.57900000      34.29500000 
C      58.61400000      21.66000000      35.39400000 
C      57.11300000      21.46600000      35.65000000 
O      56.41500000      22.41700000      36.01200000 
C      59.26400000      22.13400000      36.69200000 
C      60.47700000      23.04600000      36.68800000 
O      60.56900000      23.95000000      35.76900000 
O      61.26400000      22.94300000      37.65700000 
H      59.24500000      23.44600000      34.53200000 
H      59.03800000      20.70200000      35.09900000 
H      58.53200000      22.65900000      37.27700000 
H      59.54800000      21.24800000      37.27000000 
N      56.59600000      20.23900000      35.49900000 
C      55.17300000      19.95200000      35.68200000 
C      54.68100000      20.37100000      37.06500000 
O      53.65600000      21.00900000      37.21000000 
C      54.97100000      18.44800000      35.45700000 
C      53.60400000      17.88200000      35.91900000 
C      52.41800000      18.32300000      35.05600000 
C      51.09100000      17.71800000      35.53300000 
N      50.39000000      18.65200000      36.50600000 
H      57.17600000      19.50000000      35.15500000 
H      54.59000000      20.54500000      34.98000000 
H      55.11100000      18.23800000      34.39400000 
H      55.73400000      17.91700000      36.00200000 
H      53.67100000      16.79200000      35.84000000 
H      53.42300000      18.10400000      36.94400000 
H      52.33900000      19.40500000      35.03700000 
H      52.57000000      18.02000000      34.03300000 
H      50.39500000      17.55700000      34.72700000 
H      51.23700000      16.80600000      36.05600000 
H      49.54700000      18.23500000      36.85500000 
H      50.96000000      18.88500000      37.28400000 
H      50.12100000      19.51000000      36.06200000 
N      55.39200000      19.90800000      38.11500000 
C      54.92800000      20.06300000      39.47100000 
C      55.05500000      21.49200000      39.99800000 
O      54.31200000      21.86200000      40.90100000 
C      55.50800000      18.96600000      40.41900000 
C      57.01300000      18.63900000      40.33500000 
C      57.98800000      19.75300000      40.76800000 
C      59.14400000      19.99000000      39.79400000 
N      60.22100000      18.92700000      39.91300000 
H      56.21600000      19.38200000      37.94100000 
H      53.85000000      19.89500000      39.47100000 
H      55.26100000      19.24400000      41.43500000 
H      54.97300000      18.06100000      40.19800000 
H      57.17200000      17.76300000      40.91000000 
H      57.25400000      18.33600000      39.29600000 
H      57.50000000      20.67900000      40.87400000 
H      58.40000000      19.51800000      41.74700000 
H      58.79500000      19.92400000      38.77800000 
H      59.62200000      20.92500000      39.94100000 
H      60.93100000      19.06400000      39.20800000 
H      60.68900000      19.00600000      40.80900000 
H      59.87500000      18.00100000      39.82100000 
N      55.97900000      22.28400000      39.45000000 
C      56.18900000      23.65500000      39.89200000 
C      55.24400000      24.61900000      39.19100000 
O      54.73700000      25.56000000      39.84400000 
C      57.65000000      24.10600000      39.63200000 
C      58.09100000      25.27700000      40.54700000 
C      59.07900000      24.86200000      41.64300000 
C      60.54300000      25.14800000      41.31100000 
N      61.00100000      24.55800000      40.00800000 
H      56.55300000      21.91600000      38.71000000 
H      55.98000000      23.69400000      40.94600000 
H      58.28400000      23.24400000      39.79900000 
H      57.75500000      24.36700000      38.58800000 
H      58.49900000      26.06100000      39.94900000 
H      57.20600000      25.70100000      41.01100000 
H      58.87300000      25.38800000      42.55300000 
H      58.97100000      23.80400000      41.86900000 
H      60.70900000      26.22000000      41.23300000 
H      61.19600000      24.76400000      42.06400000 
H      61.98400000      24.69600000      39.87500000 
H      60.81600000      23.58300000      39.91000000 
H      60.55200000      25.01500000      39.20700000 
N      55.01700000      24.42700000      37.89000000 
C      54.19100000      25.32900000      37.12600000 
C      52.73000000      25.18600000      37.52600000 
O      52.00500000      26.22200000      37.65600000 
C      54.49800000      25.09100000      35.62700000 
C      53.71900000      25.91300000      34.57700000 
C      52.36500000      25.30100000      34.23100000 
C      53.63200000      27.40500000      34.92300000 
H      55.46800000      23.68200000      37.40300000 
H      54.44200000      26.36500000      37.37500000 
H      55.55500000      25.30500000      35.52300000 
H      54.36800000      24.03300000      35.41500000 
H      54.33100000      25.83700000      33.66800000 
H      51.93500000      25.80500000      33.36000000 
H      52.46000000      24.24600000      33.97800000 
H      51.65300000      25.39600000      35.03100000 
H      53.18300000      27.95700000      34.08600000 
H      52.99800000      27.56100000      35.78400000 
H      54.59700000      27.82700000      35.12000000 
N      52.24000000      23.97400000      37.75900000 
C      50.84600000      23.82000000      38.19700000 
C      50.65000000      24.43300000      39.57200000 
O      49.62300000      25.08500000      39.84300000 
C      50.44400000      22.33100000      38.13100000 
C      48.92400000      22.00000000      38.13600000 
C      48.25800000      22.10900000      39.52000000 
C      48.14600000      22.79500000      37.10200000 
H      52.78900000      23.15400000      37.62000000 
H      50.21700000      24.40200000      37.53900000 
H      50.84300000      21.95900000      37.18700000 
H      50.94100000      21.78900000      38.91800000 
H      48.88200000      20.95700000      37.84900000 
H      47.25300000      21.67600000      39.47000000 
H      48.81900000      21.54000000      40.27600000 
H      48.17200000      23.12200000      39.85200000 
H      47.11900000      22.41900000      37.03600000 
H      48.07800000      23.85000000      37.34600000 
H      48.58500000      22.70700000      36.10800000 
N      51.61400000      24.22900000      40.49100000 
C      51.42800000      24.59900000      41.89600000 
C      51.90000000      26.04900000      42.12800000 
O      52.89600000      26.31500000      42.80900000 
C      52.19500000      23.61000000      42.81200000 
O      51.95400000      22.27900000      42.37400000 
C      51.71500000      23.70600000      44.24600000 
H      52.41500000      23.73900000      40.24600000 
H      50.37500000      24.55200000      42.12400000 
H      53.24600000      23.83100000      42.76000000 
H      52.67300000      21.94600000      41.81400000 
H      52.26600000      23.03300000      44.86800000 
H      51.82500000      24.70800000      44.64800000 
H      50.65900000      23.44000000      44.30800000 
N      51.15000000      26.98700000      41.54400000 
C      51.47600000      28.41700000      41.56800000 
C      50.28100000      29.16700000      42.15100000 
O      49.52700000      29.86000000      41.41500000 
C      51.86700000      28.90700000      40.18600000 
C      52.33900000      30.33000000      40.13400000 
N      51.75200000      31.27600000      39.32900000 
C      53.33600000      30.98300000      40.77600000 
C      52.41700000      32.44900000      39.50100000 
N      53.38500000      32.31300000      40.37300000 
H      50.36900000      26.69900000      40.97700000 
H      52.31600000      28.53400000      42.25900000 
H      52.68000000      28.25500000      39.83400000 
H      51.04900000      28.77400000      39.50200000 
H      50.98300000      31.14300000      38.70700000 
H      54.03200000      30.60500000      41.48000000 
H      52.16100000      33.33600000      38.97000000 
N      43.45600000      29.09900000      26.97800000 
C      43.58900000      29.80500000      28.24300000 
C      45.08000000      29.91400000      28.54200000 
O      45.88400000      29.08000000      28.09300000 
C      42.89700000      29.00300000      29.37800000 
C      41.36800000      29.07500000      29.44900000 
C      40.64300000      28.85900000      28.11400000 
C      40.88900000      28.03000000      30.45700000 
H      43.59300000      28.10800000      27.00900000 
H      43.15200000      30.79500000      28.16200000 
H      43.19800000      27.98500000      29.28400000 
H      43.29300000      29.36400000      30.33200000 
H      41.09600000      30.07600000      29.80900000 
H      39.57400000      28.84500000      28.28100000 
H      40.85700000      29.64400000      27.40400000 
H      40.93800000      27.91500000      27.68200000 
H      39.81100000      28.10900000      30.63200000 
H      41.09500000      27.02800000      30.07300000 
H      41.39200000      28.12700000      31.41300000 
N      45.48600000      30.91400000      29.32900000 
C      46.88600000      31.09100000      29.70900000 
C      47.02000000      30.75300000      31.18500000 
O      46.21900000      31.13600000      32.02900000 
C      47.39200000      32.52500000      29.35500000 
C      46.67700000      33.66300000      30.10500000 
C      48.90100000      32.65200000      29.52100000 
H      44.79100000      31.56300000      29.69800000 
H      47.45300000      30.39600000      29.12300000 
H      47.14700000      32.62200000      28.28900000 
H      47.01300000      34.61900000      29.70500000 
H      45.60300000      33.62800000      29.99700000 
H      46.91600000      33.63700000      31.15000000 
H      49.23800000      33.58800000      29.12500000 
H      49.17600000      32.60400000      30.56800000 
H      49.42400000      31.85300000      28.99900000 
N      48.07500000      29.95000000      31.50600000 
C      48.32600000      29.52400000      32.87900000 
C      49.46400000      30.35100000      33.44300000 
O      50.64900000      30.14600000      33.17100000 
C      48.55400000      27.99000000      33.02400000 
C      49.63600000      27.45600000      32.07500000 
C      48.86700000      27.60400000      34.47400000 
H      48.68200000      29.64700000      30.78700000 
H      47.44300000      29.75800000      33.43700000 
H      47.61300000      27.55200000      32.73500000 
H      49.69900000      26.37800000      32.21100000 
H      49.43000000      27.65600000      31.04500000 
H      50.58900000      27.86500000      32.33200000 
H      48.80200000      26.50700000      34.56100000 
H      49.86300000      27.92300000      34.76600000 
H      48.15000000      28.04200000      35.16700000 
N      49.08900000      31.34300000      34.28500000 
C      50.04600000      32.17500000      35.00300000 
C      49.53200000      32.27200000      36.44200000 
O      49.69500000      31.32600000      37.21500000 
C      50.30400000      33.49400000      34.32800000 
C      51.28300000      34.35800000      35.10400000 
O      52.22400000      33.73300000      35.70300000 
O      51.10600000      35.60700000      35.11500000 
H      48.12800000      31.54600000      34.36600000 
H      50.96900000      31.62200000      35.05600000 
H      50.71100000      33.30000000      33.34800000 
H      49.38100000      34.04900000      34.13500000 
N      44.68400000      31.05100000      35.89100000 
C      44.01700000      29.74900000      35.75500000 
C      43.80600000      29.14700000      37.14900000 
O      42.76100000      28.52600000      37.40400000 
C      44.76900000      28.77300000      34.82500000 
C      43.88300000      28.23700000      33.68100000 
C      44.72900000      27.53100000      32.61400000 
C      42.79900000      27.29600000      34.20400000 
H      45.64600000      31.14900000      35.63300000 
H      43.03500000      29.92800000      35.37600000 
H      45.60800000      29.31000000      34.38800000 
H      45.19200000      27.95200000      35.38100000 
H      43.41300000      29.08900000      33.21200000 
H      44.09200000      27.16200000      31.83100000 
H      45.45400000      28.19000000      32.18800000 
H      45.25500000      26.66400000      33.05200000 
H      42.17700000      26.93100000      33.36200000 
H      43.23000000      26.42700000      34.68900000 
H      42.12400000      27.77700000      34.91000000 
N      44.75600000      29.33700000      38.04400000 
C      44.63400000      28.80500000      39.41600000 
C      43.54500000      29.54600000      40.22400000 
O      43.07900000      29.02000000      41.19700000 
C      45.98400000      28.82800000      40.14400000 
C      46.93500000      27.67000000      39.82400000 
C      46.33700000      26.30700000      40.23300000 
C      47.44000000      27.64400000      38.38100000 
H      45.57500000      29.82600000      37.82600000 
H      44.25600000      27.79300000      39.36500000 
H      46.47500000      29.78600000      39.94100000 
H      45.77300000      28.81100000      41.21200000 
H      47.80100000      27.83200000      40.47000000 
H      47.09200000      25.52600000      40.13000000 
H      45.98400000      26.31300000      41.24600000 
H      45.50300000      26.03400000      39.57900000 
H      48.26700000      26.91600000      38.29500000 
H      46.67500000      27.34800000      37.68900000 
H      47.83300000      28.61300000      38.07700000 
N      57.92800000      30.69700000      28.19400000 
C      58.22200000      29.43100000      28.85900000 
C      57.47600000      29.29800000      30.18100000 
O      57.22400000      28.16300000      30.64000000 
C      59.73100000      29.27900000      29.06700000 
H      58.73000000      31.28200000      27.96500000 
H      57.86300000      28.63100000      28.25400000 
H      59.95600000      28.34600000      29.55800000 
H      60.23300000      29.28400000      28.10200000 
H      60.12500000      30.08600000      29.66000000 
N      57.16300000      30.43200000      30.82900000 
C      56.47800000      30.51600000      32.09400000 
C      54.93600000      30.51600000      31.98900000 
O      54.29500000      30.47700000      33.01700000 
C      56.91200000      31.78900000      32.83800000 
C      58.34900000      31.72500000      33.36500000 
C      58.58100000      30.79300000      34.54000000 
O      57.61000000      30.17900000      35.03200000 
O      59.79000000      30.72800000      34.96800000 
H      57.46200000      31.28900000      30.42800000 
H      56.72900000      29.64400000      32.70100000 
H      56.83000000      32.62400000      32.13300000 
H      56.25200000      31.97200000      33.65200000 
H      59.05400000      31.44300000      32.57100000 
H      58.66000000      32.72000000      33.66700000 
N      54.38600000      30.62700000      30.77100000 
C      52.95100000      30.83300000      30.59400000 
C      52.43600000      30.02400000      29.39800000 
O      52.12100000      30.63400000      28.32500000 
C      52.58000000      32.29700000      30.37800000 
C      53.04900000      33.30700000      31.43400000 
C      52.35400000      34.63700000      31.08500000 
N      52.60200000      35.67600000      32.07900000 
C      52.02100000      36.88700000      32.05200000 
N      51.23900000      37.22100000      31.01900000 
N      52.25100000      37.75900000      33.03000000 
H      54.96600000      30.62900000      29.95000000 
H      52.46500000      30.47400000      31.47900000 
H      52.96400000      32.62000000      29.41900000 
H      51.51300000      32.34300000      30.31300000 
H      52.76200000      33.00300000      32.43400000 
H      54.11900000      33.44100000      31.41800000 
H      52.71100000      34.98300000      30.11900000 
H      51.29700000      34.48500000      31.01600000 
H      53.19700000      35.47800000      32.86300000 
H      51.06500000      36.61500000      30.27500000 
H      50.79500000      38.10500000      31.00700000 
H      52.68200000      37.46700000      33.87300000 
H      51.82500000      38.66400000      33.01400000 
N      52.29400000      28.70700000      29.49900000 
C      51.80300000      27.93600000      28.35900000 
C      50.26400000      28.00400000      28.16200000 
O      49.53200000      28.77500000      28.80300000 
C      52.34100000      26.52600000      28.62200000 
C      52.42600000      26.44800000      30.13600000 
C      52.85500000      27.85300000      30.57700000 
H      52.21000000      28.33700000      27.44100000 
H      51.71200000      25.74200000      28.19900000 
H      53.35300000      26.46600000      28.17900000 
H      51.46900000      26.20500000      30.57900000 
H      53.13700000      25.69700000      30.48100000 
H      52.49600000      28.14300000      31.53900000 
H      53.94200000      27.93600000      30.54100000 
N      49.79100000      27.22500000      27.17400000 
C      48.50800000      27.32600000      26.52400000 
C      47.67800000      26.08600000      26.81200000 
O      48.14200000      24.95000000      26.77600000 
C      48.65400000      27.56200000      24.99000000 
C      49.84100000      26.84700000      24.31000000 
C      49.44400000      26.41700000      22.88100000 
C      51.09300000      27.74300000      24.22600000 
H      50.43500000      26.57900000      26.75900000 
H      48.01600000      28.19000000      26.96900000 
H      47.72400000      27.26700000      24.54300000 
H      48.74000000      28.61900000      24.84500000 
H      50.06800000      25.93000000      24.85500000 
H      50.27500000      25.89200000      22.41500000 
H      48.59800000      25.75200000      22.88200000 
H      49.21500000      27.27700000      22.26200000 
H      51.94100000      27.15700000      23.86900000 
H      50.91900000      28.56400000      23.53900000 
H      51.35000000      28.15500000      25.20400000 
N      46.36300000      26.32600000      27.13000000 
C      45.50300000      25.30600000      27.73200000 
C      44.15900000      25.27200000      27.01400000 
O      43.61000000      26.35600000      26.68900000 
C      45.31800000      25.64700000      29.24100000 
C      44.43700000      24.61300000      29.95800000 
C      46.66800000      25.77100000      29.93900000 
H      46.06200000      27.26900000      27.23100000 
H      45.97100000      24.34400000      27.62400000 
H      44.81100000      26.60200000      29.29000000 
H      44.34700000      24.86100000      30.98500000 
H      43.45200000      24.57000000      29.54400000 
H      44.86800000      23.60800000      29.89200000 
H      46.51500000      25.91600000      31.00300000 
H      47.28100000      24.89200000      29.80800000 
H      47.22200000      26.62800000      29.58000000 
N      43.57700000      24.08500000      26.75800000 
C      42.31700000      23.98400000      25.99100000 
C      41.27000000      23.26200000      26.81800000 
O      41.54900000      22.23800000      27.47800000 
C      42.55600000      23.36500000      24.58000000 
C      42.54500000      21.86500000      24.37700000 
C      43.56900000      21.04300000      24.86700000 
C      41.56500000      21.29500000      23.62000000 
C      43.56400000      19.67900000      24.63100000 
C      41.54600000      19.90500000      23.35500000 
C      42.55500000      19.10800000      23.88200000 
O      42.51800000      17.75000000      23.59800000 
H      43.98700000      23.24900000      27.08700000 
H      41.99300000      24.98300000      25.82700000 
H      41.81900000      23.79500000      23.92900000 
H      43.51600000      23.78100000      24.24900000 
H      44.36300000      21.45500000      25.45400000 
H      40.77500000      21.88800000      23.20300000 
H      44.35200000      19.05700000      25.00700000 
H      40.78100000      19.47400000      22.76300000 
H      42.64300000      17.19000000      24.32400000 
N      42.66100000      20.63000000      29.57900000 
C      43.80500000      19.78500000      29.20900000 
C      44.83000000      20.70200000      28.57400000 
O      44.47800000      21.63100000      27.82300000 
C      43.39700000      18.68700000      28.22400000 
O      42.46900000      17.78200000      28.83200000 
H      42.20800000      21.11800000      28.83300000 
H      44.19900000      19.36600000      30.09900000 
H      42.90700000      19.09700000      27.37000000 
H      44.28100000      18.14300000      27.92200000 
H      42.83600000      17.23700000      29.51500000 
N      46.14900000      20.51400000      28.82900000 
C      47.07400000      21.46700000      28.26900000 
C      47.48400000      21.03300000      26.86500000 
O      47.68100000      19.83900000      26.60500000 
C      48.34000000      21.61200000      29.14800000 
C      48.16600000      22.26600000      30.51200000 
C      47.03900000      22.06400000      31.30700000 
C      49.16800000      23.06900000      30.99900000 
C      46.93400000      22.67600000      32.55700000 
C      49.10100000      23.64400000      32.25200000 
C      47.95600000      23.46300000      33.03500000 
H      46.44700000      19.75300000      29.36000000 
H      46.60000000      22.42900000      28.22000000 
H      48.79600000      20.63500000      29.23700000 
H      49.04800000      22.22300000      28.57600000 
H      46.23900000      21.45300000      30.98000000 
H      50.04600000      23.26700000      30.40200000 
H      46.05400000      22.51600000      33.14400000 
H      49.91800000      24.26200000      32.62100000 
H      47.89100000      23.92800000      34.00500000 
N      47.63300000      22.01900000      25.96100000 
C      47.95300000      21.73000000      24.58200000 
C      49.42700000      21.97400000      24.36000000 
O      49.88000000      23.14500000      24.39300000 
C      47.09000000      22.60800000      23.65600000 
C      46.98400000      22.10700000      22.20400000 
C      48.31400000      22.03700000      21.44700000 
C      46.22200000      20.78800000      22.09900000 
H      47.54000000      22.96400000      26.24800000 
H      47.71900000      20.70400000      24.42000000 
H      46.11200000      22.66200000      24.06900000 
H      47.50300000      23.62800000      23.66200000 
H      46.38600000      22.84400000      21.70300000 
H      48.14000000      21.80300000      20.39500000 
H      48.87600000      22.95800000      21.50400000 
H      48.95000000      21.23100000      21.83200000 
H      46.17700000      20.47800000      21.06800000 
H      46.73500000      19.98100000      22.65300000 
H      45.22400000      20.87500000      22.48900000 
N      50.19500000      20.91400000      24.16100000 
C      51.57300000      20.91900000      23.66400000 
C      51.95900000      19.46100000      23.48600000 
O      52.31100000      18.99200000      22.37700000 
C      52.62500000      21.58700000      24.57400000 
C      52.83900000      23.11100000      24.36600000 
C      53.37700000      23.81400000      25.61100000 
N      52.51300000      23.54600000      26.76800000 
C      52.93400000      23.42600000      28.00700000 
N      54.14300000      23.84900000      28.34300000 
N      52.11500000      22.87800000      28.91700000 
H      49.72300000      20.01500000      24.14800000 
H      51.58900000      21.35900000      22.67300000 
H      52.34300000      21.39600000      25.59300000 
H      53.56300000      21.11000000      24.42300000 
H      53.55500000      23.27100000      23.58600000 
H      51.90800000      23.57900000      24.06500000 
H      54.36500000      23.40900000      25.83300000 
H      53.46600000      24.86400000      25.42500000 
H      51.53900000      23.40200000      26.57100000 
H      54.71700000      24.36200000      27.74800000 
H      54.51100000      23.63500000      29.26500000 
H      51.31100000      22.42200000      28.65900000 
H      52.39600000      22.87800000      29.89200000 
N      51.91000000      18.71800000      24.61000000 
C      52.47300000      17.40000000      24.76600000 
C      51.44600000      16.32300000      25.04300000 
O      51.79100000      15.12000000      25.07100000 
C      53.51500000      17.42800000      25.89500000 
C      54.68900000      18.33600000      25.60600000 
O      55.07700000      18.48900000      24.40200000 
O      55.24000000      18.88700000      26.61400000 
H      51.68100000      19.19200000      25.45400000 
H      52.95800000      17.12600000      23.83400000 
H      53.04300000      17.73400000      26.80900000 
H      53.90900000      16.41000000      26.05000000 
N      50.16700000      16.69900000      25.30600000 
C      49.07600000      15.77000000      25.57400000 
C      49.21900000      14.99700000      26.90700000 
O      48.55000000      13.97200000      27.05900000 
C      48.77400000      14.81100000      24.40200000 
C      47.80400000      15.38700000      23.36000000 
O      46.82500000      14.70500000      23.02100000 
N      48.07800000      16.55600000      22.84100000 
H      49.95100000      17.64800000      25.27900000 
H      48.21300000      16.40000000      25.74700000 
H      49.66700000      14.53200000      23.91100000 
H      48.30600000      13.92500000      24.78400000 
H      47.51500000      16.89100000      22.06700000 
H      48.89900000      17.07900000      23.06700000 
N      49.99200000      15.52200000      27.84200000 
C      50.12700000      14.91500000      29.16600000 
C      49.55500000      15.76000000      30.30900000 
O      49.10500000      15.16000000      31.30300000 
C      51.56900000      14.48200000      29.53500000 
C      51.85600000      13.08500000      28.92000000 
C      52.64300000      15.50300000      29.12900000 
H      50.55000000      16.31500000      27.62300000 
H      49.49000000      14.03000000      29.15600000 
H      51.58700000      14.37800000      30.61800000 
H      52.86600000      12.78100000      29.17700000 
H      51.16500000      12.35100000      29.32600000 
H      51.76100000      13.11500000      27.84900000 
H      53.58600000      15.21800000      29.55800000 
H      52.76600000      15.50100000      28.03900000 
H      52.40300000      16.49200000      29.44900000 
N      49.62000000      17.08100000      30.27200000 
C      49.26800000      17.89600000      31.43500000 
C      47.76600000      18.15400000      31.44100000 
O      47.16400000      18.38300000      30.36400000 
C      50.05700000      19.22900000      31.42500000 
C      49.86700000      20.00800000      32.73500000 
C      51.55000000      19.01900000      31.14600000 
H      49.89100000      17.55800000      29.42700000 
H      49.54100000      17.34000000      32.30100000 
H      49.66100000      19.84600000      30.61800000 
H      50.45400000      20.92100000      32.70600000 
H      48.84600000      20.28000000      32.91600000 
H      50.22000000      19.41700000      33.56900000 
H      52.06900000      19.95600000      31.29700000 
H      51.97500000      18.28700000      31.82000000 
H      51.74100000      18.71000000      30.13700000 
N      47.14700000      18.17900000      32.60600000 
C      45.75300000      18.56100000      32.78100000 
C      45.58600000      19.24900000      34.11900000 
O      46.41200000      19.06800000      35.02100000 
C      44.81100000      17.33200000      32.69400000 
H      47.65600000      17.96800000      33.45900000 
H      45.50100000      19.24400000      31.99100000 
H      43.78500000      17.63400000      32.83500000 
H      44.90100000      16.87600000      31.71800000 
H      45.07100000      16.60700000      33.44400000 
N      44.50000000      20.00100000      34.26400000 
C      44.06900000      20.51600000      35.57000000 
C      42.61200000      20.24200000      35.75200000 
O      41.80100000      20.30200000      34.81500000 
C      44.41200000      22.01400000      35.78600000 
O      44.30000000      22.17600000      37.20600000 
C      43.55000000      23.00500000      35.04500000 
H      43.86300000      20.13900000      33.48900000 
H      44.64500000      19.98400000      36.30400000 
H      45.44800000      22.13900000      35.47900000 
H      44.28000000      23.10600000      37.46400000 
H      43.87000000      24.01700000      35.29700000 
H      43.60000000      22.89500000      33.97200000 
H      42.49500000      22.91900000      35.33800000 
H      59.86105480      24.41326682      24.06337523 
H      50.08626748      29.11313720      43.13037636 
H      42.62766772      29.22488519      26.64933823 
H      49.06594907      33.10079461      36.75167085 
H      44.25935612      31.66061141      35.38301230 
H      43.23707023      30.45218784      39.93416753 
H      57.50777299      30.53640725      27.41450065 
H      40.33050232      23.60356909      26.84397428 
H      42.02462093      20.12267631      29.96324518 
H      42.25782841      19.99958515      36.65521510 
