385
Properties=species:S:1:pos:R:3 pbc="F F F"
N      14.79600000      12.62100000      26.78400000 
C      16.21300000      12.66000000      26.52500000 
C      16.60900000      11.51900000      25.62700000 
O      17.60200000      11.60500000      24.88000000 
C      16.97200000      12.61200000      27.85400000 
C      17.17600000      11.19600000      28.37800000 
C      17.33800000      11.06800000      29.87900000 
N      18.11400000      12.15700000      30.46400000 
C      18.52500000      12.15100000      31.72000000 
N      18.46300000      11.04400000      32.44000000 
N      18.99900000      13.25400000      32.27900000 
H      14.49800000      12.50400000      27.73000000 
H      16.46000000      13.56600000      26.00200000 
H      17.92800000      13.08900000      27.70700000 
H      16.40800000      13.20600000      28.55500000 
H      16.31900000      10.59500000      28.13300000 
H      18.02900000      10.76400000      27.87400000 
H      16.36500000      11.06100000      30.33500000 
H      17.83500000      10.13400000      30.08200000 
H      18.18300000      13.00200000      29.95300000 
H      18.15900000      10.18400000      32.05300000 
H      18.75200000      11.04500000      33.38900000 
H      18.97800000      14.12200000      31.80400000 
H      19.37300000      13.23900000      33.19800000 
N      15.87400000      10.41800000      25.68700000 
C      16.22300000       9.24700000      24.93200000 
C      15.97400000       9.46900000      23.46900000 
O      16.66700000       8.90200000      22.60700000 
C      15.40900000       8.07500000      25.45100000 
C      15.82500000       6.78000000      24.80200000 
O      17.03500000       6.43800000      24.93600000 
O      14.93800000       6.13100000      24.18200000 
H      15.04000000      10.38900000      26.23400000 
H      17.27100000       9.03600000      25.04100000 
H      15.59200000       8.00300000      26.51400000 
H      14.36200000       8.26000000      25.29400000 
N      14.99200000      10.29600000      23.12700000 
C      14.78800000      10.62400000      21.74000000 
C      15.96900000      11.41900000      21.27300000 
O      16.49100000      11.24800000      20.15600000 
C      13.50400000      11.40800000      21.57100000 
H      14.51200000      10.82800000      23.81400000 
H      14.75900000       9.72400000      21.16100000 
H      13.34200000      11.65500000      20.53400000 
H      12.67000000      10.81800000      21.91700000 
H      13.54200000      12.31700000      22.15000000 
N      16.45800000      12.32100000      22.11500000 
C      17.60400000      13.10500000      21.71500000 
C      18.75400000      12.18600000      21.41600000 
O      19.51000000      12.41000000      20.45500000 
C      18.04000000      14.13600000      22.75700000 
C      16.85800000      14.85600000      23.39000000 
C      18.99800000      15.11300000      22.09600000 
C      15.97400000      15.60000000      22.40600000 
H      16.06700000      12.42600000      23.02100000 
H      17.37200000      13.59700000      20.78500000 
H      18.54900000      13.60100000      23.54300000 
H      16.25300000      14.15500000      23.94200000 
H      17.26400000      15.54800000      24.11300000 
H      19.28700000      15.87200000      22.80600000 
H      19.88400000      14.61400000      21.73800000 
H      18.52300000      15.59500000      21.25400000 
H      15.13500000      16.04900000      22.92100000 
H      16.51700000      16.38500000      21.89900000 
H      15.58200000      14.92700000      21.66100000 
N      18.93700000      11.12300000      22.18900000 
C      20.01900000      10.20300000      21.90800000 
C      19.95700000       9.74300000      20.48200000 
O      20.98300000       9.66900000      19.77800000 
C      19.91000000       9.01300000      22.85000000 
C      20.91400000       7.90700000      22.57200000 
C      22.34200000       8.37200000      22.79100000 
C      20.60400000       6.71400000      23.46200000 
H      18.37700000      10.99200000      23.00300000 
H      20.96400000      10.69900000      22.00800000 
H      20.05100000       9.37500000      23.86100000 
H      18.90800000       8.62600000      22.77800000 
H      20.81100000       7.59100000      21.54100000 
H      23.02800000       7.55800000      22.62200000 
H      22.60800000       9.17800000      22.12300000 
H      22.46800000       8.71800000      23.81000000 
H      21.30200000       5.90900000      23.27700000 
H      20.68400000       6.99900000      24.50500000 
H      19.60000000       6.35000000      23.28900000 
N      18.77200000       9.38900000      20.01100000 
C      18.63000000       8.86100000      18.67900000 
C      19.05300000       9.85700000      17.64800000 
O      19.43400000       9.47300000      16.52200000 
C      17.19400000       8.45300000      18.44600000 
C      16.81000000       7.25400000      19.28300000 
O      17.71200000       6.41400000      19.55600000 
O      15.59600000       7.16700000      19.62200000 
H      17.95900000       9.53000000      20.56500000 
H      19.26200000       8.00200000      18.56400000 
H      16.53600000       9.27500000      18.66800000 
H      17.07100000       8.18400000      17.40500000 
N      19.00300000      11.14000000      17.95500000 
C      19.36900000      12.15300000      17.00700000 
C      20.82300000      12.08800000      16.64100000 
O      21.21000000      12.66400000      15.61000000 
C      19.03900000      13.51500000      17.58600000 
H      18.77800000      11.42800000      18.88000000 
H      18.83000000      11.99600000      16.08800000 
H      19.28900000      14.29600000      16.88900000 
H      17.98400000      13.54900000      17.79600000 
H      19.57400000      13.66400000      18.50700000 
N      21.64700000      11.43300000      17.45100000 
C      23.04400000      11.29200000      17.14700000 
C      23.32600000       9.97000000      16.47300000 
O      24.50100000       9.64600000      16.22400000 
C      23.92800000      11.42700000      18.37500000 
C      23.97100000      12.80400000      19.03300000 
C      24.33500000      13.90100000      18.04800000 
C      22.69500000      13.16300000      19.77500000 
H      21.30500000      11.00800000      18.28700000 
H      23.29900000      12.05000000      16.42900000 
H      23.62000000      10.68900000      19.10500000 
H      24.92600000      11.17100000      18.05700000 
H      24.76700000      12.74600000      19.76800000 
H      24.47700000      14.84000000      18.56800000 
H      25.24800000      13.66600000      17.51700000 
H      23.54400000      14.04100000      17.32300000 
H      22.86000000      14.04100000      20.38800000 
H      21.89500000      13.37900000      19.08700000 
H      22.37000000      12.35600000      20.41400000 
N      22.29200000       9.19300000      16.16100000 
C      22.48000000       7.86800000      15.63900000 
C      22.28600000       7.79400000      14.15700000 
O      22.75500000       6.84400000      13.51200000 
C      21.54700000       6.88800000      16.33800000 
C      21.77100000       6.91700000      17.83600000 
C      23.19400000       6.60000000      18.22800000 
O      23.81400000       5.73100000      17.54700000 
O      23.67200000       7.21200000      19.22800000 
H      21.36700000       9.46100000      16.41800000 
H      23.49400000       7.57200000      15.83000000 
H      20.52500000       7.15300000      16.11600000 
H      21.74800000       5.90400000      15.95100000 
H      21.51200000       7.87600000      18.24500000 
H      21.12600000       6.18200000      18.30300000 
N      21.57000000       8.75700000      13.56900000 
C      21.30500000       8.73100000      12.15600000 
C      22.39100000       9.40400000      11.35500000 
O      22.43800000       9.25800000      10.12500000 
C      19.99100000       9.42500000      11.86200000 
C      18.86200000       8.72600000      12.54900000 
O      18.71100000       7.49900000      12.44800000 
N      18.04700000       9.50000000      13.25800000 
H      21.21200000       9.49800000      14.12500000 
H      21.25700000       7.70900000      11.83600000 
H      20.04300000      10.45400000      12.17000000 
H      19.81100000       9.39700000      10.79800000 
H      17.27100000       9.10400000      13.73400000 
H      18.22100000      10.47300000      13.36200000 
N      23.21900000      10.18400000      12.03400000 
C      24.31400000      10.89400000      11.44500000 
C      25.53800000      10.01400000      11.39900000 
O      25.55500000       8.89000000      11.91700000 
C      24.51600000      12.20700000      12.19700000 
C      24.73400000      12.08500000      13.70000000 
C      26.15200000      11.67300000      14.05200000 
C      24.40100000      13.42000000      14.34500000 
H      23.13900000      10.19200000      13.01900000 
H      24.05500000      11.12300000      10.42500000 
H      25.34200000      12.75400000      11.76500000 
H      23.62000000      12.78100000      12.01800000 
H      24.05900000      11.34900000      14.11100000 
H      26.25500000      11.61200000      15.12600000 
H      26.41100000      10.71100000      13.64100000 
H      26.84700000      12.40600000      13.67400000 
H      24.62100000      13.38600000      15.39900000 
H      25.00500000      14.19500000      13.90400000 
H      23.35300000      13.65100000      14.22500000 
N      26.59400000      10.49700000      10.73500000 
C      27.77200000       9.71800000      10.54600000 
C      28.85200000      10.08600000      11.52600000 
O      28.85700000      11.14000000      12.17200000 
C      28.31600000       9.88900000       9.14100000 
O      28.81000000      11.24000000       9.09800000 
C      27.27400000       9.65300000       8.08000000 
H      26.57900000      11.41700000      10.36800000 
H      27.51600000       8.68200000      10.68900000 
H      29.14500000       9.21500000       9.00600000 
H      28.97800000      11.55000000       8.21400000 
H      27.72100000       9.74000000       7.10000000 
H      26.86000000       8.66000000       8.18200000 
H      26.47700000      10.37300000       8.16800000 
N      30.12900000      13.39900000      10.57300000 
C      29.28500000      14.51100000      10.93300000 
C      29.54100000      14.91400000      12.35600000 
O      29.59000000      16.11300000      12.68600000 
C      27.83200000      14.10500000      10.72400000 
C      26.85800000      15.25500000      10.82900000 
C      26.56800000      15.73200000      12.23200000 
O      26.97000000      15.02900000      13.19700000 
O      25.89900000      16.80200000      12.34000000 
H      29.69400000      12.55300000      10.27000000 
H      29.52400000      15.36800000      10.32600000 
H      27.77000000      13.67100000       9.73700000 
H      27.58700000      13.33700000      11.43600000 
H      27.19500000      16.10000000      10.24700000 
H      25.91000000      14.94800000      10.40800000 
N      29.75300000      13.93700000      13.22300000 
C      29.81200000      14.19400000      14.64200000 
C      30.83700000      15.25500000      14.93300000 
O      30.62600000      16.15600000      15.76700000 
C      30.12500000      12.85300000      15.30000000 
C      30.20400000      12.80800000      16.81900000 
C      31.49800000      13.39600000      17.36500000 
C      28.98700000      13.43900000      17.47600000 
H      29.65400000      12.99400000      12.91700000 
H      28.86600000      14.58200000      14.97400000 
H      29.33700000      12.18500000      14.98000000 
H      31.04600000      12.48100000      14.87500000 
H      30.20400000      11.75400000      17.07000000 
H      31.62900000      13.09700000      18.39700000 
H      32.35200000      13.03600000      16.80800000 
H      31.49100000      14.47400000      17.31500000 
H      29.00500000      13.26800000      18.54500000 
H      28.97300000      14.50700000      17.30600000 
H      28.07200000      13.01700000      17.07800000 
N      28.86400000      10.94600000      21.38000000 
C      27.46400000      11.28500000      21.29600000 
C      26.78500000      10.97200000      22.60000000 
O      25.91300000      11.72000000      23.06800000 
C      26.82000000      10.48800000      20.17800000 
H      29.26400000      10.37300000      20.67700000 
H      27.34300000      12.34100000      21.13300000 
H      25.76000000      10.66600000      20.16100000 
H      27.24000000      10.79000000      19.22900000 
H      26.99700000       9.43300000      20.32500000 
N      27.11800000       9.84100000      23.21200000 
C      26.42900000       9.43100000      24.41100000 
C      26.70700000      10.42200000      25.50800000 
O      25.81800000      10.84800000      26.27200000 
C      26.91500000       8.06300000      24.86900000 
C      26.96200000       7.00700000      23.77500000 
C      27.28500000       5.66600000      24.41400000 
C      25.66100000       6.93500000      23.00100000 
H      27.80000000       9.24600000      22.81000000 
H      25.36900000       9.42900000      24.23600000 
H      27.90200000       8.16500000      25.29700000 
H      26.25000000       7.73100000      25.65500000 
H      27.76400000       7.24900000      23.08900000 
H      27.40100000       4.90100000      23.65900000 
H      28.19800000       5.72400000      24.99200000 
H      26.47900000       5.37400000      25.07700000 
H      25.70800000       6.15200000      22.25600000 
H      24.84300000       6.71700000      23.67400000 
H      25.44700000       7.86600000      22.49600000 
N      24.89200000      13.57500000      25.06500000 
C      23.52400000      13.60900000      25.52200000 
C      23.47200000      13.81800000      27.00700000 
O      22.63200000      14.59100000      27.50200000 
C      22.72700000      12.36800000      25.14800000 
O      23.16400000      11.20500000      25.84600000 
C      22.70800000      12.12700000      23.66100000 
H      25.24300000      12.82300000      24.50900000 
H      23.02500000      14.45900000      25.08900000 
H      21.72400000      12.54200000      25.49800000 
H      24.11100000      11.04000000      25.82300000 
H      22.06500000      11.28700000      23.47100000 
H      22.32300000      12.99100000      23.13700000 
H      23.69200000      11.89500000      23.29100000 
N      18.47400000      21.82200000      20.29000000 
C      18.93800000      20.74900000      19.45100000 
C      18.53100000      21.00600000      18.03000000 
O      19.32300000      20.89000000      17.08000000 
C      18.31700000      19.43800000      19.92500000 
O      18.80400000      19.13700000      21.23200000 
C      18.68100000      18.29700000      19.01600000 
H      17.95200000      21.60300000      21.11200000 
H      20.01100000      20.67000000      19.47500000 
H      17.24700000      19.56700000      19.96200000 
H      18.33800000      19.62800000      21.91200000 
H      18.29200000      17.37800000      19.42300000 
H      18.26100000      18.43700000      18.03400000 
H      19.75400000      18.21700000      18.92600000 
N      20.84900000      21.27100000      14.53700000 
C      20.68300000      20.25500000      13.53300000 
C      20.24500000      20.84800000      12.22800000 
O      20.74600000      20.42800000      11.17000000 
C      19.66100000      19.22300000      13.97100000 
C      20.09500000      18.37800000      15.15700000 
C      18.95000000      17.44400000      15.51600000 
C      21.34900000      17.57900000      14.84800000 
H      20.29400000      21.24000000      15.36700000 
H      21.63100000      19.79000000      13.33200000 
H      18.73900000      19.73400000      14.20500000 
H      19.47200000      18.56800000      13.13200000 
H      20.28600000      19.02900000      15.99500000 
H      19.20200000      16.83400000      16.37100000 
H      18.05500000      18.00600000      15.74500000 
H      18.73600000      16.79000000      14.68200000 
H      21.61400000      16.95800000      15.69500000 
H      21.18100000      16.93500000      13.99300000 
H      22.19300000      18.21800000      14.63400000 
N      19.70000000      17.40000000       8.03300000 
C      19.12200000      16.10100000       7.83900000 
C      17.65700000      16.10100000       8.13600000 
O      17.17000000      16.73500000       9.08900000 
C      19.79900000      15.08400000       8.74600000 
C      21.22400000      14.84200000       8.27600000 
C      22.02900000      14.22600000       9.37000000 
O      21.75900000      13.09500000       9.81900000 
N      23.01500000      14.97600000       9.85000000 
H      19.71400000      17.77800000       8.95000000 
H      19.27700000      15.83100000       6.81200000 
H      19.78800000      15.47300000       9.75400000 
H      19.25300000      14.15700000       8.74200000 
H      21.21300000      14.17100000       7.43100000 
H      21.66900000      15.77200000       7.97800000 
H      23.20200000      15.87300000       9.45800000 
H      23.57400000      14.64700000      10.60000000 
N      16.10400000      13.91200000       9.55100000 
C      15.90500000      13.39600000      10.87500000 
C      15.78700000      14.49300000      11.89100000 
O      15.27000000      14.22900000      12.99300000 
C      17.02100000      12.44300000      11.27900000 
C      18.39000000      13.10500000      11.27100000 
S      19.34900000      12.87200000      12.84100000 
C      18.34200000      13.93100000      13.97100000 
H      16.89200000      13.61800000       9.02700000 
H      14.97100000      12.86500000      10.91100000 
H      16.77100000      12.07100000      12.25800000 
H      17.00600000      11.60300000      10.60300000 
H      19.02300000      12.70400000      10.50200000 
H      18.31700000      14.16600000      11.11900000 
H      18.91600000      14.04100000      14.86900000 
H      18.19400000      14.88800000      13.50600000 
H      17.39900000      13.46200000      14.17600000 
N      12.34400000      14.43700000      12.31400000 
C      11.98300000      13.22000000      12.99800000 
C      12.08800000      13.42800000      14.48000000 
O      11.19400000      13.04500000      15.25000000 
C      12.89900000      12.08400000      12.56600000 
C      12.65900000      10.81300000      13.36600000 
C      13.51100000      10.73700000      14.59900000 
O      14.72100000      11.02100000      14.56700000 
N      12.91700000      10.30800000      15.71000000 
H      13.07900000      14.43200000      11.64800000 
H      10.95500000      12.96800000      12.80000000 
H      12.72800000      11.90000000      11.51700000 
H      13.91900000      12.39100000      12.69700000 
H      11.61700000      10.70600000      13.62100000 
H      12.93700000       9.96100000      12.76200000 
H      11.94100000      10.14200000      15.74300000 
H      13.44100000      10.21000000      16.54600000 
N      13.19300000      14.00900000      14.93500000 
C      13.33900000      14.19300000      16.35500000 
C      12.24400000      15.09300000      16.84700000 
O      11.59400000      14.84200000      17.88300000 
C      14.68900000      14.80600000      16.68700000 
C      14.82300000      15.09400000      18.17600000 
C      14.72000000      13.80900000      18.97800000 
C      16.12000000      15.82400000      18.46400000 
H      13.93400000      14.25100000      14.31200000 
H      13.21200000      13.25000000      16.85300000 
H      15.46300000      14.11600000      16.37900000 
H      14.80600000      15.71600000      16.11700000 
H      14.01500000      15.74500000      18.47000000 
H      14.92400000      13.98900000      20.02200000 
H      13.73200000      13.37900000      18.90800000 
H      15.43700000      13.08200000      18.62300000 
H      16.21200000      16.02300000      19.52200000 
H      16.96900000      15.23200000      18.16100000 
H      16.15900000      16.76600000      17.93400000 
H      14.41970309      13.39229838      26.51289219 
H      29.61847552       9.46310936      11.68259670 
H      30.66737947      13.63837755       9.89267218 
H      31.71372500      15.24854242      14.45205138 
H      29.35691048      11.69884229      21.36363710 
H      27.63553914      10.76601011      25.64754247 
H      25.05617788      14.29763408      24.55426953 
H      24.11393264      13.33518526      27.60266132 
H      19.17849817      22.29492623      20.59003850 
H      17.59275190      21.28142198      17.82063613 
H      21.69697043      21.25985417      14.83836677 
H      19.55684707      21.57343710      12.21434157 
H      20.56252838      17.38640948       7.77636779 
H      17.02979217      15.57818619       7.55869933 
H      15.40013252      13.69347053       9.03445819 
H      16.11967578      15.41127113      11.67627934 
H      11.63484879      14.74402208      11.85265198 
H      12.01479678      15.92439712      16.34079380 
