156
Properties=species:S:1:pos:R:3 pbc="F F F"
N      55.21100000      25.04700000       5.67400000 
C      56.33400000      25.31400000       6.63300000 
C      55.90900000      26.12000000       7.85200000 
O      56.57500000      25.94900000       8.89400000 
C      57.52700000      25.97800000       5.91100000 
C      58.39900000      25.01500000       5.12200000 
S      59.48300000      23.93000000       6.23300000 
C      58.75100000      22.21300000       6.01900000 
H      55.45900000      24.33900000       5.02500000 
H      54.37600000      24.73200000       6.14400000 
H      54.94500000      25.86800000       5.11800000 
H      56.61700000      24.34500000       7.01800000 
H      57.14700000      26.75100000       5.24100000 
H      58.13500000      26.47500000       6.65700000 
H      57.83100000      24.34600000       4.47500000 
H      59.07900000      25.56400000       4.50700000 
H      59.36400000      21.55300000       6.62900000 
H      57.74200000      22.18600000       6.35800000 
H      58.82100000      21.91100000       4.98300000 
N      54.88400000      26.95600000       7.80800000 
C      54.46900000      27.71400000       8.98800000 
C      53.96400000      26.77200000      10.07900000 
O      54.17500000      27.02700000      11.28600000 
C      53.43200000      28.75600000       8.63100000 
H      54.39200000      27.16000000       6.95200000 
H      55.35100000      28.18500000       9.41400000 
H      53.15600000      29.32200000       9.51600000 
H      53.84000000      29.43100000       7.90300000 
H      52.53600000      28.29000000       8.22300000 
N      53.28400000      25.66600000       9.68400000 
C      52.75000000      24.73400000      10.66200000 
C      53.86400000      23.90800000      11.33000000 
O      53.77800000      23.60200000      12.50300000 
C      51.68700000      23.84500000       9.97900000 
C      50.82600000      23.10800000      10.97000000 
O      50.98600000      21.86800000      11.15000000 
N      49.92100000      23.79200000      11.62800000 
H      53.11400000      25.52700000       8.73400000 
H      52.28800000      25.28500000      11.46100000 
H      51.05900000      24.49100000       9.38600000 
H      52.15700000      23.13700000       9.31200000 
H      49.33300000      23.36700000      12.29000000 
H      49.77300000      24.78400000      11.45600000 
N      54.92200000      23.57600000      10.55600000 
C      56.10100000      22.91000000      11.08600000 
C      56.81100000      23.81200000      12.12000000 
O      57.23900000      23.31900000      13.16200000 
C      57.03800000      22.57100000       9.91500000 
C      58.44000000      22.07500000      10.27000000 
C      58.48900000      20.61800000      10.74000000 
C      59.94000000      20.17600000      10.91200000 
N      60.04100000      18.70900000      11.26400000 
H      54.91300000      23.82000000       9.60000000 
H      55.81200000      22.02100000      11.62400000 
H      56.52500000      21.86100000       9.28600000 
H      57.15300000      23.48300000       9.32800000 
H      59.04000000      22.16000000       9.38200000 
H      58.89800000      22.70500000      11.01800000 
H      57.95100000      20.48000000      11.67900000 
H      58.00900000      19.96900000       9.99100000 
H      60.50800000      20.32000000      10.01500000 
H      60.42100000      20.71000000      11.72500000 
H      60.99700000      18.42300000      11.33400000 
H      59.58100000      18.49800000      12.11500000 
H      59.62000000      18.13800000      10.53200000 
N      56.95700000      25.09100000      11.81700000 
C      57.65600000      25.99500000      12.72100000 
C      56.92700000      26.14600000      14.02900000 
O      57.59600000      26.15900000      15.11700000 
C      57.89000000      27.35600000      12.06400000 
H      56.65300000      25.45800000      10.93500000 
H      58.61500000      25.55000000      12.97600000 
H      58.42400000      28.00900000      12.75700000 
H      58.49000000      27.23500000      11.17000000 
H      56.95400000      27.82100000      11.80300000 
N      55.59700000      26.27300000      14.05100000 
C      54.89800000      26.36000000      15.32500000 
C      54.90600000      25.01900000      16.04300000 
O      54.96600000      25.01700000      17.29200000 
C      53.51400000      27.04400000      15.19100000 
C      52.45900000      26.26100000      14.38300000 
C      52.96100000      27.38000000      16.59900000 
H      55.09600000      26.33200000      13.17900000 
H      55.48100000      26.99700000      15.96400000 
H      53.70900000      27.97800000      14.69000000 
H      51.52000000      26.80400000      14.41400000 
H      52.76600000      26.16600000      13.36300000 
H      52.29500000      25.27300000      14.80100000 
H      52.12600000      28.08200000      16.49400000 
H      52.59200000      26.51500000      17.10600000 
H      53.69900000      27.85000000      17.21600000 
N      54.93100000      23.87200000      15.33900000 
C      55.18300000      22.61000000      16.04300000 
C      56.47900000      22.62900000      16.80000000 
O      56.53100000      22.15300000      17.97000000 
C      55.19400000      21.44300000      15.04100000 
C      55.43400000      20.14100000      15.72600000 
O      54.58200000      19.66000000      16.52800000 
N      56.57900000      19.49500000      15.49300000 
H      54.77900000      23.86200000      14.37600000 
H      54.39900000      22.43100000      16.78300000 
H      54.22400000      21.39000000      14.54200000 
H      55.92800000      21.62900000      14.28300000 
H      56.78200000      18.64900000      15.92200000 
H      57.31500000      19.91400000      14.91800000 
N      57.57100000      23.10000000      16.19200000 
C      58.87500000      23.06500000      16.83200000 
C      58.92700000      24.00400000      18.01700000 
O      59.49800000      23.68200000      19.05200000 
C      59.97600000      23.34900000      15.81100000 
C      60.12000000      22.27300000      14.73900000 
O      59.65700000      21.13600000      14.96000000 
O      60.75900000      22.63800000      13.71000000 
H      57.50000000      23.40200000      15.24000000 
H      59.02400000      22.07700000      17.24700000 
H      59.80600000      24.31400000      15.34100000 
H      60.91800000      23.42800000      16.34700000 
N      58.30900000      25.20800000      17.90400000 
C      58.23500000      26.13600000      19.01300000 
C      57.45100000      25.53000000      20.18000000 
O      57.84800000      25.69900000      21.35100000 
C      57.61200000      27.45300000      18.50900000 
C      57.44000000      28.52200000      19.55000000 
C      58.53300000      29.16900000      20.13500000 
C      56.14600000      28.93000000      19.93900000 
C      58.35900000      30.17800000      21.04800000 
C      55.97300000      29.95400000      20.86200000 
C      57.06600000      30.58900000      21.42300000 
H      57.91700000      25.46800000      17.01700000 
H      59.23800000      26.32800000      19.41200000 
H      58.24600000      27.81200000      17.71900000 
H      56.64300000      27.22300000      18.06500000 
H      59.53700000      28.87500000      19.84400000 
H      55.29100000      28.44300000      19.49900000 
H      59.21900000      30.67400000      21.49300000 
H      54.97800000      30.25600000      21.13000000 
H      56.93500000      31.37500000      22.14200000 
N      54.00400000      32.64900000      14.16100000 
C      54.64900000      32.22300000      15.40000000 
C      55.28800000      33.39600000      16.11900000 
O      55.35300000      33.42300000      17.35200000 
C      55.62700000      31.03700000      15.10900000 
C      56.64300000      31.32700000      13.99100000 
C      56.38300000      30.59800000      16.39100000 
H      54.31400000      32.27400000      13.30900000 
H      53.89600000      31.84000000      16.08600000 
H      55.00700000      30.21500000      14.80900000 
H      57.30300000      30.47300000      13.88200000 
H      56.16200000      31.46200000      13.02700000 
H      57.24300000      32.18900000      14.19000000 
H      56.89800000      29.69200000      16.21200000 
H      57.11900000      31.37200000      16.69700000 
H      55.69300000      30.46600000      17.21900000 
H      56.62189308      24.99951442      20.00345889 
H      53.12839777      32.44317878      14.19195742 
H      55.66314089      34.16001790      15.59407528 
