 205 
 
N                31.7176882389       18.8531798305       39.0191002204
C                32.8111157482       17.9096933515       38.9187344541
C                32.2622224331       16.4867528451       38.7887509989
O                32.6481385960       15.7322443052       37.9067903384
C                33.7368091152       18.0032568101       40.1367098580
C                34.8218947740       16.9698268827       40.0094498244
C                34.6798805732       15.7207216700       40.5987199757
C                35.9543869795       17.2286559932       39.2475001006
C                35.6485938403       14.7465460539       40.4282151331
C                36.9273254847       16.2593788865       39.0793963323
C                36.7747707523       15.0137669870       39.6662885167
H                31.8028760300       19.6097686783       39.6954845291
H                33.3796667115       18.1015508568       37.9974881245
H                34.1569733587       19.0099394981       40.1724152690
H                33.1421774002       17.8247937749       41.0330416699
H                33.8039330498       15.5063277338       41.1933105362
H                36.0728743891       18.1974346034       38.7848017293
H                35.5120025476       13.7797503607       40.8907912670
H                37.8037648139       16.4747819871       38.4873392240
H                37.5361871943       14.2588444130       39.5355834146
N                35.1775278692       12.0313547205       38.0293162049
C                35.5215464067       10.7786489298       38.6618691794
C                35.2317110745       10.7892019654       40.1589814797
O                34.3415295098       11.4539668207       40.6640675493
H                35.5123721034       12.8734741704       38.4740047727
H                34.9027411345       10.0087910110       38.1888595337
H                36.5779282068       10.5493445802       38.4892150100
N                36.0314422809        9.9689630299       40.8768850847
C                35.9184479164        9.8915931923       42.3200485034
C                37.3023975851       10.0369474117       42.9462301064
O                38.2623335002       10.4546772279       42.3022863798
C                35.2063290753        8.5753935904       42.7089182341
O                36.0013256771        7.4451489400       42.4372705792
H                36.8931390206        9.6544977237       40.4491097587
H                35.2886650762       10.7346266113       42.6374374653
H                34.9727035129        8.5593483334       43.7740653663
H                34.2610727459        8.5409113595       42.1603785837
H                36.0062434085        7.2935339463       41.4815054835
N                37.4233036702        9.5869550687       44.1969467924
C                38.6831294223        9.5994704728       44.9187416702
C                39.8276103712        9.1337483375       44.0241643022
O                40.9149812100        9.6973073152       44.0504993039
C                38.5891444768        8.6527670713       46.1221207184
C                37.7767539193        9.2322940204       47.2903713321
C                37.2760158230        8.0944898237       48.1783331767
C                38.6213997467       10.2073849162       48.1070582995
H                36.6029417054        9.3824362883       44.7494899373
H                38.9295791837       10.6159566619       45.2475372645
H                38.1384163143        7.7183291067       45.7861808596
H                39.5986793428        8.4310257131       46.4726148401
H                36.9103519609        9.7793257695       46.9038101947
H                36.7177852680        8.4930607072       49.0212260514
H                36.6221007887        7.4281468468       47.6238710002
H                38.1157366827        7.5250191070       48.5687577734
H                38.0280952419       10.6648845255       48.8955250447
H                39.4560969119        9.6881163423       48.5726918446
H                39.0247291669       11.0043931577       47.4859527552
N                39.5785757057        8.0589286332       43.2699769472
C                40.6276593750        7.3922221494       42.5238430589
C                41.1542186210        8.2304933236       41.3620051822
O                42.2372230785        7.9758684400       40.8384593358
C                40.1691991581        6.0187487737       42.0144392154
C                39.6455302853        5.1262731925       43.1513483905
C                38.1217525711        4.9650363563       43.1005156315
N                37.6631540341        4.3494497816       44.3325142800
C                36.4744662279        4.4924410538       44.9095247320
N                35.5535048420        5.3215994411       44.4324629213
N                36.2151726813        3.7949747919       46.0174347383
H                38.6555177350        7.6473074303       43.2749288536
H                41.4665605381        7.2357429428       43.2154547505
H                39.4017590678        6.1516018975       41.2520975570
H                41.0481638310        5.5566402106       41.5663726834
H                40.1046347562        4.1418267674       43.0722471054
H                39.9551877925        5.5505350585       44.1071744921
H                37.6322025751        5.9315466496       42.9754217217
H                37.8517151930        4.3279813197       42.2513348216
H                38.3026405881        3.6767337251       44.7324274186
H                35.7023563583        5.9017394067       43.6138890622
H                34.6592764086        5.3889166104       44.8902092423
H                36.8894187292        3.1537738596       46.4011407426
H                35.3266409669        3.8683723381       46.4831864049
N                40.3363362146        9.1808853108       40.9002171580
C                40.7602041161       10.1579194322       39.9186348585
C                41.7049242754       11.1828922523       40.5567800797
O                42.7691605490       11.4843282326       40.0301626206
C                39.5163604710       10.8433748841       39.3281756960
O                38.6161863225        9.9030857851       38.8128048364
H                39.4926767705        9.4295836175       41.4128861992
H                41.3277291117        9.6490709890       39.1306650146
H                38.9855659421       11.3722170839       40.1242479020
H                39.8338530380       11.5738576323       38.5768092690
H                38.9612194561        9.5281928754       37.9899497574
N                41.2915906950       11.6697133596       41.7307564736
C                42.1465813349       12.5385227483       42.5187910983
C                43.5006109892       11.8368665864       42.7184451858
O                44.5710045934       12.4033341885       42.5478761802
C                41.5071531370       12.8768809963       43.8768596726
C                40.1755801293       13.6173074820       43.6871486137
C                42.4850144555       13.7097279034       44.7041556240
C                39.4583467454       13.8816607807       45.0080972640
H                40.3963554428       11.4027524265       42.1220895550
H                42.3518212235       13.4614061611       41.9610676890
H                41.3199262560       11.9319690149       44.3963399595
H                40.3641484224       14.5657846808       43.1799205897
H                39.5140272167       13.0269321970       43.0501353914
H                42.1188557547       13.8467447249       45.7164924197
H                43.4594197965       13.2300033756       44.7584628809
H                42.6282304125       14.6882786488       44.2498915125
H                38.4600232806       14.2674681140       44.8197709050
H                39.3763166271       12.9668329829       45.5900271699
H                39.9924262289       14.6157491446       45.6031679671
N                43.3952847035       10.5534619312       43.0927661305
C                44.5757486569        9.7690524253       43.4016431058
C                45.4342773996        9.6529963250       42.1396853057
O                46.6293226077        9.9382710883       42.1509551766
C                44.1899817643        8.4000111606       43.9615995069
C                43.5747912739        8.5096724419       45.3629319697
C                43.0235954516        7.1624404903       45.8029829555
O                42.0683441793        6.6456821636       45.2451123231
N                43.6376412737        6.5878301940       46.8434024395
H                42.4852896504       10.1733446551       43.3520058086
H                45.1961638613       10.3213616960       44.1218186234
H                43.4815359006        7.9276727870       43.2800199588
H                45.0883942641        7.7831348682       43.9998946117
H                44.3156063781        8.8832429654       46.0678493409
H                42.7376359855        9.2093497499       45.3291580993
H                44.4405460893        7.0010960090       47.2851945077
H                43.3230656086        5.6843746360       47.1630040345
N                44.8132814187        9.2345963000       41.0365246400
C                45.5203796387        9.1978885013       39.7677522978
C                46.3159359639       10.4941704685       39.5671841525
O                47.4805170859       10.4527525901       39.1907195964
C                44.5466124747        8.9631487776       38.6042939765
C                44.8460841610        7.6704153084       37.8400113636
C                43.6633527092        7.2421246408       36.9738473126
N                42.5926559092        6.7329747983       37.8177860258
C                41.5755764311        5.9875269192       37.3965304893
N                41.3775883142        5.7524240855       36.1036477847
N                40.7156364236        5.5004289082       38.2916884815
H                43.8489145865        8.9057034637       41.0532972211
H                46.2848177795        8.4094413978       39.8035261897
H                43.5423324380        8.9305769013       39.0239273582
H                44.5892579788        9.8131579377       37.9221629258
H                45.7184809384        7.8284689905       37.2057090057
H                45.0868371155        6.8743199152       38.5448958353
H                43.3222714957        8.1022054141       36.3877877073
H                43.9957500804        6.4516296132       36.2963996591
H                42.6697777241        6.9423192866       38.8072850976
H                41.9753513450        6.1529017341       35.3999017209
H                40.6230753604        5.1608096970       35.7953053504
H                40.9166265119        5.5896362437       39.2751448562
H                39.9685791790        4.8869553381       38.0069973866
N                45.6282028684       11.6200718178       39.7961152923
C                46.1625356848       12.9435207633       39.5868775255
C                47.3431431457       13.3182670609       40.4852160626
O                47.8391912258       14.4454148943       40.3904026758
C                45.0394985995       13.9775516978       39.7599849624
O                45.4009760319       15.2675908655       39.3426769942
H                44.6452839268       11.5753925285       40.0484233561
H                46.5914654608       13.0212582847       38.5741669261
H                44.1762702240       13.6871890811       39.1525405564
H                44.7497511575       13.9767922368       40.8220512915
H                46.3229081523       15.4159511533       39.6121632630
N                47.7948131454       12.3958593946       41.3338313598
C                49.1155214289       12.5001974574       41.9200137965
C                50.1580007040       12.6260536676       40.7929222690
O                51.1934491069       13.2694090748       40.9588432806
C                49.4202912627       11.2933368690       42.8207187949
C                49.8379273092       11.6814046960       44.2431710248
C                49.7311401203       10.4693776681       45.1675354026
C                51.2512201413       12.2562653557       44.2560689782
H                47.3174060103       11.5054444469       41.4243541770
H                49.1717317318       13.4384984108       42.4876847221
H                48.5244620556       10.6761233931       42.8684427484
H                50.2111269151       10.6961330441       42.3617787729
H                49.1451181492       12.4535531709       44.5960250648
H                50.0464974392       10.7366990698       46.1720272399
H                48.7031248236       10.1191929706       45.2029042469
H                50.3631796931        9.6625436291       44.8051412449
H                51.4955567811       12.6544494548       45.2374355499
H                51.9762071653       11.4867700455       43.9997186219
H                51.3465046341       13.0548866598       43.5226380897
N                49.8761047034       11.9152665816       39.7014878856
C                50.5580977951       12.0754741949       38.4408513117
C                49.8131457811       13.1306986655       37.5422619945
O                48.5724109058       13.0449191799       37.4780885596
C                50.5906559117       10.7633490311       37.6586347905
C                51.5200095469        9.6882109014       38.2386357464
C                50.8292431371        8.8922079505       39.3426542458
C                51.9898944515        8.7404958119       37.1352013564
O                50.5413159725       13.9379316509       36.9323896127
H                48.9527263198       11.4959315512       39.6010473456
H                51.5641721631       12.4654645797       38.6344780514
H                49.5634086413       10.3955310571       37.6067367048
H                50.9063113738       11.0216671415       36.6437079978
H                52.3949755777       10.1975612491       38.6596271120
H                51.5119141290        8.1563666634       39.7606550247
H                50.4993546392        9.5534925475       40.1384578734
H                49.9584093068        8.3825153767       38.9384263522
H                52.6458889904        7.9791907798       37.5491701474
H                51.1330294144        8.2584409479       36.6712632320
H                52.5390333432        9.2863461287       36.3717159181
H                31.5982853853       19.2602172280       38.2253348171
H                31.5728503674       16.1559510136       39.4332169043
H                35.5123933338       12.0480932590       37.1941006986
