 226 
 
N                14.8330806637       44.6735025120       44.3797813215
C                14.9649869168       43.2405376274       44.5543936314
C                14.2385500239       42.5190582141       43.4189007219
O                14.7611524737       41.5978205755       42.8018719667
C                14.4201430649       42.8051665497       45.9248007705
C                15.4348129793       43.1740176748       47.0138249805
C                14.1339053676       41.3047672432       45.9223955472
C                14.8442170811       43.1308421851       48.4167114223
H                14.4777054535       45.2244086453       45.1551675991
H                16.0240822574       42.9563918693       44.4718836490
H                13.4866034664       43.3493089606       46.0999409214
H                16.2832710605       42.4893378428       46.9469888901
H                15.8046914927       44.1845781390       46.8327201013
H                13.9187016194       40.9541169522       46.9263887682
H                13.2827922147       41.0686683708       45.2877695975
H                14.9998910543       40.7653750136       45.5471481859
H                15.6154160839       43.3756487408       49.1401853832
H                14.0483517280       43.8651662183       48.5099676605
H                14.4495419163       42.1470102203       48.6530757121
N                15.9006204907       42.6067608510       40.0836194218
C                17.0399530658       41.7091019859       40.1035180910
C                16.5779331019       40.2652666437       39.8926970203
O                17.1286402561       39.5266983729       39.0703548267
C                17.7832423939       41.8530686549       41.4233806807
H                15.7299340861       43.1796574166       40.9042748434
H                17.7023107446       41.9539008873       39.2617022313
H                18.6301931661       41.1740761572       41.4502061206
H                18.1488306128       42.8707863544       41.5280218833
H                17.1112338373       41.6276268942       42.2477079872
N                17.4573921529       37.5578253895       36.8976581241
C                17.9415531973       36.2047300989       37.0850703070
C                17.1188367314       35.2324602367       36.2390949950
O                17.6457704577       34.4289298946       35.4735364030
C                17.8711651794       35.7905964626       38.5609710224
C                18.1498573686       34.2956368436       38.6850655523
C                18.8749029716       36.5841125586       39.3919590143
H                17.1004168665       38.0514358990       37.7085147448
H                18.9780084831       36.1348878114       36.7261711648
H                16.8563859328       35.9999329940       38.9137809838
H                18.2424209161       34.0123291051       39.7279711939
H                17.3646487624       33.7025418248       38.2212610813
H                19.0895714084       34.0459228870       38.1984976785
H                18.7862949544       36.2880530733       40.4342989123
H                19.8836408239       36.3538069441       39.0584908930
H                18.6905752625       37.6512657164       39.3018351011
N                20.4295818043       29.9061671174       41.4977513069
C                20.7721529745       31.1917630409       40.9189817011
C                20.0806056393       32.2820580899       41.7348948453
O                20.7024954654       33.1446741513       42.3501646208
C                20.4038344516       31.2291100686       39.4339400253
C                21.2072887863       32.2501969019       38.7000238301
N                21.3407385693       33.5355318960       39.1406410582
C                21.9488274677       32.0826536515       37.5586210800
C                22.1466093953       34.1145746019       38.2862074531
N                22.5367904655       33.2841263895       37.3017080331
H                20.0504493502       29.1946352838       40.8830414788
H                21.8530287482       31.3537456754       41.0175815602
H                20.6142909545       30.2522111388       38.9910579672
H                19.3345030249       31.4180350388       39.3159676059
H                22.0604265176       31.2309982307       36.9173379810
H                22.4702696904       35.1336192495       38.3475230148
H                23.2473281517       33.4796792534       36.5873299838
N                18.7510864734       32.1919764500       41.7830525751
C                17.9896704986       33.1678225230       42.5367636414
C                18.5922090609       33.3378833675       43.9344797902
O                18.7800443618       34.4577565567       44.4063622007
C                16.5098735261       32.8032881369       42.6805441143
C                15.6294742417       33.2269217217       41.4923738681
C                15.5937222275       32.1626660961       40.4009389404
C                14.2067877367       33.5159879939       41.9712828867
H                18.2766724705       31.4163177590       41.3371521766
H                18.0911295386       34.1474148543       42.0470739803
H                16.4355833427       31.7280703042       42.8493283420
H                16.1450306686       33.3078194950       43.5781490083
H                16.0415826328       34.1464648385       41.0655824076
H                14.9947454037       32.5066897537       39.5618851801
H                16.5875337834       31.9254038236       40.0316403976
H                15.1522730259       31.2458948863       40.7863354845
H                13.5870445915       33.8213409013       41.1324540724
H                13.7725674470       32.6254383801       42.4182069015
H                14.2052479439       34.3103048530       42.7130538696
N                18.8061192067       32.2100451243       44.6031331023
C                19.2997282625       32.1940678861       45.9663905494
C                20.5527445428       33.0507417599       46.1088271386
O                20.6757634953       33.8451770954       47.0351227325
C                19.5972295874       30.7516487984       46.3820111885
C                20.2752962117       30.6144476140       47.7507716366
C                19.4085682900       31.1732523481       48.8764570530
C                20.5956719465       29.1417928404       48.0012811746
H                18.6106518341       31.3156869046       44.1646133301
H                18.5423553565       32.6388345112       46.6254854491
H                18.6578455776       30.1953625438       46.3769299582
H                20.2494643374       30.3239243271       45.6190182773
H                21.2132286881       31.1792521435       47.7279258110
H                19.8644015073       30.9617072090       49.8403126976
H                19.3059652158       32.2511306181       48.7823640213
H                18.4198654934       30.7222154430       48.8554561188
H                21.1177290789       29.0243896746       48.9463755775
H                19.6784689335       28.5590457713       48.0385757377
H                21.2259651301       28.7485558006       47.2073230881
N                21.5163669906       32.8342380025       45.2126032598
C                22.7653228531       33.5525447246       45.3311484241
C                22.5263632472       35.0611443159       45.2988797651
O                23.0934125243       35.8077408562       46.0912402221
C                23.8020110540       33.1242252450       44.2716482883
O                23.4427973062       33.4893650226       42.9662888078
C                24.1100540833       31.6295741396       44.4035710310
H                21.3733638691       32.1814603028       44.4514795621
H                23.1897510080       33.3452162535       46.3245908050
H                24.7169082687       33.6969173126       44.4772743099
H                22.5322876220       33.2090801047       42.7580807157
H                24.8906812647       31.3625375105       43.6962004742
H                24.4457898503       31.4046881690       45.4116353742
H                23.2258469183       31.0396512810       44.1809770032
N                21.6649963006       35.4985038982       44.3810328812
C                21.3070573149       36.9025066207       44.3431221954
C                20.6848595156       37.2948870001       45.6876822503
O                21.0711765564       38.2764855598       46.3182658599
C                20.3763957667       37.1903360873       43.1688330505
O                21.1704309761       37.2252239307       42.0076204114
H                21.2860935075       34.8827412339       43.6726165256
H                22.2137466069       37.5068821092       44.2062422203
H                19.6146151047       36.4020963079       43.1139951638
H                19.8838706543       38.1556939054       43.3441020887
H                20.6173655747       37.4075746057       41.2384592309
N                19.7338022565       36.4796609251       46.1258622838
C                19.1055500292       36.6713179774       47.4152338362
C                20.1310097625       37.0055011661       48.5008366559
O                19.9804003705       37.9365124808       49.2807442243
H                19.4203530098       35.7032635815       45.5486563966
H                18.3891244592       37.4972184902       47.3688765539
H                18.5955537091       35.7472962299       47.6890913400
N                21.1775295377       36.1799168602       48.5441744348
C                22.2123595349       36.3322022340       49.5462352715
C                22.8565853430       37.7140430903       49.4241465763
O                22.9866068290       38.4503956230       50.3990584379
C                23.2388909196       35.2086777415       49.4092287196
C                22.6819670709       33.8367730481       49.8197832550
C                23.6508711261       32.7355011555       49.3939592031
C                22.4329070250       33.7593042311       51.3246632982
H                21.2197741197       35.3703735810       47.9336470018
H                21.7537985591       36.3118638201       50.5440073475
H                23.5610836000       35.1763218606       48.3669112619
H                24.1085133315       35.4447422341       50.0261493936
H                21.7342471328       33.6736950756       49.2974252371
H                23.2612377135       31.7592846638       49.6696029607
H                23.8090015346       32.7510712588       48.3183719994
H                24.6147083615       32.8702345215       49.8784848552
H                22.1784196003       32.7428840827       51.6131063247
H                23.3175697354       34.0667191618       51.8793372236
H                21.6097045745       34.4035994372       51.6217348134
N                23.2365994467       38.0766397280       48.1928920465
C                23.8864640294       39.3566591974       47.9945761836
C                23.0444237324       40.4871830560       48.5851146455
O                23.5713446644       41.4947332013       49.0602471757
C                24.1402592754       39.7404070037       46.5080182580
O                22.9754509842       40.1931271153       45.8731934688
C                24.8309972413       38.6330475221       45.7162870326
H                23.1464384111       37.4258206987       47.4219259935
H                24.8488919177       39.3468488218       48.5259870088
H                24.8005749029       40.6177829911       46.5352230939
H                22.2989279625       39.4868955307       45.9032741737
H                25.0001490246       38.9865339858       44.7020491906
H                25.7819978379       38.3788360513       46.1711732561
H                24.2209934843       37.7360897371       45.6708749066
N                21.7269593480       40.3438353444       48.4759953819
C                20.7976406233       41.3793777982       48.8617654744
C                20.8886107130       41.7568601418       50.3422684888
O                20.4307472185       42.8256923951       50.7311581826
C                19.3574401247       40.9380719467       48.6060923747
C                19.0059319307       40.6187357689       47.1775829046
C                19.7839040135       40.9860350341       46.0896695248
C                17.8286230627       39.9106698917       46.9498349875
C                19.3964224004       40.6463769595       44.8031663633
C                17.4492878407       39.5573745834       45.6684272611
C                18.2339211189       39.9281132547       44.5886700375
H                21.3374195025       39.5135151937       48.0475326082
H                21.0259416216       42.3001185943       48.3060556717
H                19.1736575838       40.0495332829       49.2147963819
H                18.7034467130       41.7337033422       48.9737191607
H                20.7100175628       41.5206582651       46.2281973083
H                17.2155382372       39.6320260012       47.7956178644
H                20.0227552142       40.9397296048       43.9734582807
H                16.5474143401       38.9838418847       45.5109724357
H                17.9301661084       39.6595801009       43.5885640103
N                21.4425727851       40.8571509661       51.1611213898
C                21.6259286800       41.1117171724       52.5717324950
C                23.0458905581       41.6465026163       52.8329954159
O                23.6480612033       41.4492829069       53.8824337739
C                21.3488438014       39.8533147688       53.3920193381
C                19.8628274231       39.5881365379       53.6581889899
C                19.0481689328       39.5144819799       52.3683804897
C                19.7216937682       38.2886565160       54.4489921949
H                21.8340675796       39.9923458756       50.8020095524
H                20.9290733006       41.9179839319       52.8458645564
H                21.7883184379       39.0016251526       52.8658374382
H                21.8704450488       39.9549929615       54.3453334384
H                19.4714663832       40.4099322899       54.2680010367
H                18.0422482022       39.1649910264       52.5857706111
H                18.9689619463       40.4930614200       51.9020868210
H                19.5062734811       38.8281483764       51.6590317785
H                18.6797697335       38.1063141969       54.6972338812
H                20.0879405530       37.4505812947       53.8606283650
H                20.2935970256       38.3329209717       55.3726254378
N                23.5255778212       42.4099827446       51.8415027649
C                24.9322396801       42.7083684868       51.6659699765
C                25.6601500225       43.0473498348       52.9656085638
O                26.7174338983       42.4766196849       53.2315145648
C                25.1217139506       43.8265840729       50.6264988760
C                26.4045073876       43.5808937727       49.8404706286
O                27.4214257119       44.2351297553       50.0034017504
N                26.2984364380       42.5673912934       48.9724139341
H                23.0206451106       42.3932761811       50.9623846336
H                25.4193974989       41.7960992262       51.2879170358
H                24.2838711843       43.7969084230       49.9296274837
H                25.1792667148       44.8082648140       51.0937149745
H                27.0806965943       42.3232750041       48.3873033078
H                25.4124594639       42.0851116133       48.8555814268
H                15.6390112717       45.0291277816       44.1953727458
H                13.3124304462       42.7956621505       43.1623996691
H                15.9908148434       43.1916940133       39.4055942199
H                15.8147452774       39.9014772256       40.4267397187
H                18.1240312029       38.0746826278       36.5838891451
H                16.1206732296       35.2383210092       36.2993882363
H                21.1646153988       29.5346105504       41.8606167536
H                25.2767891566       43.7272533342       53.5907210962
