199
Properties=species:S:1:pos:R:3 pbc="F F F"
N      15.92000000      16.07100000      21.51400000 
C      14.57700000      16.13400000      22.08400000 
C      13.49100000      16.00200000      21.03000000 
O      12.49000000      15.29800000      21.24800000 
C      14.39200000      17.46200000      22.87200000 
C      13.00900000      17.65900000      23.36800000 
N      12.35600000      16.78900000      24.21100000 
C      12.11600000      18.66000000      23.10100000 
C      11.10700000      17.27100000      24.43000000 
N      10.92700000      18.39600000      23.78400000 
H      16.50000000      16.91300000      21.58300000 
H      14.43900000      15.28200000      22.74100000 
H      15.11300000      17.42100000      23.71700000 
H      14.68100000      18.28900000      22.24000000 
H      12.71200000      15.94300000      24.55000000 
H      12.23100000      19.49600000      22.51500000 
H      10.40400000      16.77600000      25.04100000 
N      15.14000000      25.89500000      37.94300000 
C      14.00400000      24.97700000      37.94900000 
C      12.71100000      25.78600000      38.15500000 
O      12.73100000      26.73200000      38.94700000 
C      14.19700000      23.93700000      39.05800000 
C      15.36200000      23.01300000      38.68700000 
O      16.41200000      23.01800000      39.36100000 
O      15.17400000      22.27100000      37.64300000 
H      15.31200000      26.41200000      38.76100000 
H      13.99600000      24.47500000      37.01500000 
H      14.42100000      24.40900000      39.98700000 
H      13.30800000      23.33500000      39.18500000 
N      11.61200000      25.45700000      37.46000000 
C      10.45400000      26.33900000      37.40200000 
C       9.41700000      26.01900000      38.49100000 
O       9.44500000      26.64200000      39.56400000 
C       9.97300000      26.18900000      35.96100000 
C      10.37900000      24.77800000      35.50000000 
C      11.44800000      24.32200000      36.51400000 
H      10.77200000      27.36300000      37.62800000 
H       8.90900000      26.38500000      35.84400000 
H      10.47900000      26.94000000      35.36400000 
H       9.54200000      24.09500000      35.51000000 
H      10.77800000      24.80100000      34.50900000 
H      11.15300000      23.45400000      37.05200000 
H      12.38900000      24.10300000      36.01600000 
N       8.50200000      25.07100000      38.27400000 
C       7.37600000      24.87600000      39.18700000 
C       7.81200000      24.51900000      40.59100000 
O       7.24800000      25.00500000      41.59600000 
C       6.48000000      23.78100000      38.59300000 
O       5.43700000      23.56000000      39.54400000 
H       8.48100000      24.58200000      37.41400000 
H       6.80700000      25.79700000      39.28600000 
H       6.08400000      24.12100000      37.67000000 
H       7.04700000      22.88600000      38.43700000 
H       4.82000000      22.85400000      39.26400000 
N       8.81800000      23.63700000      40.70800000 
C       9.30400000      23.13200000      41.98300000 
C      10.38000000      24.01000000      42.59700000 
O      10.78900000      23.74000000      43.74500000 
C       9.83100000      21.72100000      41.78200000 
O      10.86200000      21.81900000      40.77100000 
H       9.27000000      23.28900000      39.89100000 
H       8.48900000      23.09300000      42.68100000 
H      10.21400000      21.33400000      42.68900000 
H       9.02900000      21.09100000      41.41800000 
H      11.35900000      21.01900000      40.66400000 
N      10.86500000      25.05200000      41.92100000 
C      11.94400000      25.85100000      42.41800000 
C      11.55400000      26.80600000      43.52900000 
O      12.37900000      27.13000000      44.38300000 
H      10.48200000      25.27800000      41.00800000 
H      12.73200000      25.22100000      42.79800000 
H      12.35400000      26.42800000      41.60000000 
N      10.30600000      27.25700000      43.55100000 
C       9.85700000      28.22000000      44.53900000 
C       9.80900000      27.59500000      45.94300000 
O       9.93000000      28.33600000      46.94400000 
C       8.49300000      28.78700000      44.16400000 
H       9.66400000      26.98100000      42.83200000 
H      10.57700000      29.02400000      44.60900000 
H       8.15800000      29.49800000      44.90200000 
H       8.56500000      29.29800000      43.20400000 
H       7.74500000      27.99900000      44.07500000 
N       9.51600000      15.07800000      40.24800000 
C       8.89400000      15.77900000      39.12500000 
C       9.90300000      16.07100000      37.99900000 
O       9.47900000      16.26200000      36.84600000 
C       8.22800000      17.08700000      39.63500000 
C       6.84500000      17.29900000      39.01500000 
C       6.02900000      18.43100000      39.63800000 
O       6.61200000      19.22100000      40.42300000 
O       4.81000000      18.49300000      39.30700000 
H       9.65800000      15.58100000      41.08500000 
H       8.16000000      15.13700000      38.67700000 
H       8.09500000      16.99100000      40.70300000 
H       8.85000000      17.94200000      39.46300000 
H       6.92600000      17.50300000      37.94400000 
H       6.24700000      16.39800000      39.09600000 
N      11.20800000      16.10300000      38.33100000 
C      12.26100000      16.46200000      37.38500000 
C      13.22000000      15.33500000      37.06000000 
O      14.36600000      15.63900000      36.68400000 
H      11.47300000      16.04000000      39.27800000 
H      11.81100000      16.78300000      36.47300000 
H      12.83100000      17.27000000      37.77700000 
N      15.09600000      14.06600000      32.15800000 
C      15.87700000      15.22500000      31.72900000 
C      15.84700000      15.33200000      30.19600000 
O      16.78400000      14.99800000      29.50900000 
C      17.31100000      15.15300000      32.26600000 
C      18.02900000      16.47500000      32.24600000 
C      17.82000000      17.40100000      33.26900000 
C      18.94300000      16.79900000      31.22700000 
C      18.50200000      18.59400000      33.30400000 
C      19.62200000      17.99800000      31.25800000 
C      19.40900000      18.89600000      32.29900000 
H      15.59200000      13.19500000      32.30100000 
H      15.37500000      16.11400000      32.15500000 
H      17.25000000      14.79000000      33.27900000 
H      17.86300000      14.42400000      31.68900000 
H      17.12900000      17.15000000      34.06800000 
H      19.11000000      16.09800000      30.44100000 
H      18.33600000      19.29000000      34.10300000 
H      20.32400000      18.23600000      30.48000000 
H      19.94900000      19.82900000      32.32000000 
N      14.71000000      15.83400000      29.70400000 
C      14.51000000      16.08200000      28.27200000 
C      14.52200000      17.60200000      28.08200000 
O      15.61300000      18.16700000      27.97500000 
C      13.30700000      15.31900000      27.73100000 
O      12.17100000      15.74400000      28.52700000 
C      13.47600000      13.82500000      27.77000000 
H      13.93400000      16.02700000      30.30600000 
H      15.39400000      15.71400000      27.76800000 
H      13.14600000      15.64400000      26.71100000 
H      11.36500000      15.28300000      28.30000000 
H      12.59900000      13.33000000      27.38500000 
H      14.32800000      13.51600000      27.14800000 
H      13.65700000      13.47300000      28.78800000 
N      13.35700000      18.26000000      28.10400000 
C      13.27800000      19.69200000      28.01600000 
C      12.45800000      20.32900000      29.13500000 
O      12.35400000      21.56900000      29.16500000 
C      12.69800000      20.13800000      26.65300000 
H      12.52400000      17.70500000      28.11300000 
H      14.26800000      20.07700000      28.11300000 
H      12.69300000      21.22900000      26.59200000 
H      13.32200000      19.76700000      25.86500000 
H      11.70500000      19.78000000      26.51800000 
N      11.87300000      19.54600000      30.05200000 
C      11.02700000      20.08900000      31.09200000 
C      11.84300000      20.94700000      32.06300000 
O      11.46400000      22.07000000      32.41900000 
C      10.25500000      18.90600000      31.72500000 
C       9.00100000      19.25800000      32.50300000 
O       8.06900000      18.33700000      32.48000000 
O       8.93400000      20.32100000      33.13600000 
H      12.01900000      18.55400000      30.01800000 
H      10.30800000      20.78400000      30.64300000 
H       9.95800000      18.24700000      30.90900000 
H      10.91300000      18.33800000      32.36200000 
N      13.00100000      20.41600000      32.47300000 
C      13.97500000      21.12200000      33.29100000 
C      15.24400000      21.28800000      32.46800000 
O      15.77600000      20.30000000      31.97600000 
C      14.30400000      20.32200000      34.56900000 
C      13.13800000      20.15600000      35.48100000 
N      13.06500000      20.76700000      36.72200000 
C      11.97600000      19.44700000      35.36000000 
C      11.87900000      20.42300000      37.27600000 
N      11.19700000      19.63100000      36.48100000 
H      13.30000000      19.51000000      32.10900000 
H      13.53800000      22.05200000      33.55900000 
H      14.71700000      19.37100000      34.28700000 
H      15.09500000      20.84900000      35.10600000 
H      13.77000000      21.35600000      37.10800000 
H      11.65100000      18.83700000      34.56000000 
H      11.57300000      20.76700000      38.23600000 
N      15.75400000      22.53300000      32.29100000 
C      16.96900000      22.72000000      31.50600000 
C      18.22700000      22.52900000      32.32800000 
O      18.19500000      22.36700000      33.57500000 
C      16.81300000      24.18400000      31.02700000 
C      16.10900000      24.86200000      32.20700000 
C      15.13300000      23.80700000      32.72500000 
H      16.99400000      22.04300000      30.67500000 
H      17.75600000      24.65200000      30.77000000 
H      16.17400000      24.20200000      30.15700000 
H      16.82400000      25.11300000      32.99000000 
H      15.60000000      25.77100000      31.93200000 
H      15.01800000      23.83100000      33.78200000 
H      14.16300000      23.90500000      32.25800000 
H      16.39031012      15.42245522      21.92411957 
H      13.58006087      16.48231174      20.15743551 
H      15.89786469      25.43415377      37.79048157 
H       9.68245883      26.60851655      46.04710448 
H       9.00684884      14.37358508      40.48159091 
H      12.92344344      14.38430750      37.15076325 
H      14.69962071      14.24573931      32.94576725 
H      19.12137052      22.52898556      31.88067308 
