581
Properties=species:S:1:pos:R:3 pbc="F F F"
N       9.87100000      15.62900000      32.49000000 
C       9.60700000      14.08300000      31.64900000 
C      10.72700000      13.49800000      31.09400000 
O      10.90400000      13.54800000      29.67000000 
C       8.25600000      14.31200000      30.75500000 
C       7.11100000      13.88900000      31.28800000 
S       5.52800000      14.00400000      30.14600000 
C       5.00900000      15.87700000      30.15300000 
H       9.20400000      15.95100000      32.42300000 
H      10.39500000      15.41000000      32.85000000 
H      10.46100000      16.12100000      31.47600000 
H       9.26400000      13.56700000      32.47700000 
H       8.35800000      15.18400000      30.10700000 
H       8.44800000      13.39500000      29.89200000 
H       6.99000000      13.15000000      31.83600000 
H       6.78900000      14.82400000      32.19000000 
H       4.31700000      15.91600000      29.42000000 
H       4.67100000      16.10700000      31.11900000 
H       5.93800000      16.46300000      29.89700000 
N      11.58800000      13.04400000      31.67500000 
C      12.95500000      12.86500000      31.34800000 
C      13.27200000      11.49000000      30.16900000 
O      14.19100000      11.51700000      29.76800000 
H      11.41900000      12.84000000      32.74700000 
H      13.48500000      13.51700000      30.96000000 
H      13.64700000      12.35300000      32.35200000 
N      12.08700000      11.94900000      27.52300000 
C      12.33000000      12.50900000      26.25200000 
C      14.01600000      12.66600000      26.08300000 
O      14.27400000      12.76900000      24.72300000 
C      11.85700000      14.08600000      26.36500000 
H      11.68900000      12.51600000      28.20600000 
H      11.95000000      12.12400000      25.39200000 
H      12.03400000      14.58800000      25.27300000 
H      10.82700000      14.04200000      26.37000000 
H      12.26100000      14.62300000      27.01200000 
N      14.62700000      12.50200000      26.52900000 
C      16.27200000      12.30800000      26.71900000 
C      16.63000000      11.26200000      25.86200000 
O      17.62300000      11.28600000      25.07500000 
C      17.02600000      12.24500000      27.91300000 
C      17.31700000      10.97600000      28.72900000 
C      17.27400000      10.90800000      30.12900000 
N      17.99600000      12.08100000      30.70500000 
C      18.55400000      11.94000000      32.12300000 
N      18.56900000      10.83000000      32.68500000 
N      18.88300000      12.94200000      32.75100000 
H      14.36200000      12.24300000      28.07200000 
H      16.49300000      13.34100000      26.10400000 
H      17.88800000      12.99900000      27.88100000 
H      16.34300000      12.98700000      28.82800000 
H      16.68400000      10.28000000      28.24200000 
H      18.33900000      10.75200000      28.19700000 
H      16.43300000      10.82800000      30.42600000 
H      17.85600000       9.93500000      30.37500000 
H      18.05000000      12.71200000      30.47500000 
H      18.30700000       9.81000000      32.29000000 
H      18.92700000      10.70000000      33.72300000 
H      18.75500000      13.96200000      32.22200000 
H      19.30400000      13.01700000      33.56900000 
N      30.39100000      23.54400000      15.76200000 
C      29.54500000      24.50100000      15.57600000 
C      28.80900000      24.74100000      16.72200000 
O      28.22600000      26.02800000      16.97100000 
C      28.42800000      23.89300000      14.49900000 
C      27.63400000      25.22500000      14.04300000 
C      28.69400000      26.14300000      12.94200000 
C      27.64100000      27.50800000      12.70900000 
N      28.76000000      28.46900000      12.66800000 
H      30.43700000      22.47200000      15.39200000 
H      29.95600000      25.30200000      15.27000000 
H      29.06800000      23.50000000      13.67200000 
H      27.89100000      23.26400000      14.79500000 
H      26.86300000      24.67000000      13.16700000 
H      27.21000000      25.57000000      14.52600000 
H      29.33200000      26.42700000      13.64900000 
H      28.91700000      25.62300000      12.20400000 
H      27.40600000      27.28100000      11.53900000 
H      26.99000000      27.56300000      13.21300000 
H      28.13100000      29.48000000      12.29100000 
H      28.86200000      28.73900000      13.70700000 
H      29.53100000      28.48100000      12.17200000 
N      28.72800000      23.63400000      17.86500000 
C      27.91000000      24.12700000      19.06200000 
C      28.32900000      25.28000000      19.63700000 
O      27.46700000      26.24600000      20.26500000 
C      28.29700000      22.86300000      19.96100000 
C      27.39900000      22.34400000      21.30100000 
C      27.97400000      23.66400000      22.52300000 
C      25.80100000      22.80200000      21.12600000 
H      28.95400000      23.08800000      17.65000000 
H      26.96300000      24.20500000      18.89500000 
H      27.96000000      21.99800000      19.36300000 
H      29.14800000      22.79000000      20.17200000 
H      27.59900000      21.83200000      21.53700000 
H      27.36200000      23.23400000      23.36300000 
H      28.81900000      23.57700000      22.51500000 
H      27.51500000      24.68400000      22.25200000 
H      25.38900000      22.43900000      21.93700000 
H      25.54100000      23.74700000      20.80300000 
H      25.58300000      22.02100000      20.23500000 
N      29.75100000      25.65700000      19.73600000 
C      30.27300000      26.93600000      20.44800000 
C      29.56400000      28.08500000      19.73000000 
O      29.47500000      29.21700000      20.52100000 
C      31.59100000      26.90900000      20.36900000 
C      32.61600000      28.12100000      20.73100000 
C      33.89200000      27.78400000      21.40600000 
C      32.73300000      28.91500000      19.44200000 
H      30.27200000      25.10500000      19.40100000 
H      29.87800000      26.92600000      21.45500000 
H      32.01400000      25.98500000      21.10600000 
H      32.03400000      26.45700000      19.35100000 
H      31.88900000      28.73500000      21.36000000 
H      34.34600000      28.62100000      21.64200000 
H      33.62100000      27.26300000      22.40800000 
H      34.41700000      27.10700000      20.85900000 
H      33.35900000      29.85000000      19.68900000 
H      33.52000000      28.31700000      18.76000000 
H      31.96900000      29.16500000      18.89300000 
N      29.30300000      28.28900000      18.65700000 
C      28.95600000      29.07400000      17.83100000 
C      27.37800000      29.74800000      17.76400000 
O      27.09900000      30.80300000      17.32200000 
C      29.29600000      29.40600000      16.28000000 
O      28.95200000      28.48700000      15.49000000 
H      29.24100000      27.25200000      18.01300000 
H      29.47300000      30.31900000      18.25300000 
H      29.40800000      30.25300000      15.86700000 
H      30.73600000      29.07300000      16.42700000 
H      28.37900000      27.57300000      15.92100000 
N      26.61500000      28.79900000      18.20600000 
C      25.14600000      29.11400000      18.16800000 
C      24.71000000      30.06100000      19.14000000 
O      25.28500000      30.17900000      20.28300000 
C      24.30600000      27.89800000      18.32100000 
C      24.14900000      27.14600000      19.82800000 
C      22.95600000      27.76100000      17.75800000 
H      26.91700000      27.97800000      18.72200000 
H      24.96000000      29.40700000      17.14600000 
H      24.89300000      26.95800000      17.70200000 
H      23.90900000      26.26100000      19.78500000 
H      25.35500000      27.20900000      20.26100000 
H      23.74100000      27.80300000      20.34700000 
H      22.44200000      26.96800000      17.82700000 
H      22.31700000      28.63300000      18.37400000 
H      22.92400000      28.16500000      16.74600000 
N      23.90600000      30.96200000      18.80400000 
C      23.32700000      32.10500000      19.93700000 
C      22.71100000      31.30800000      21.07400000 
O      21.84400000      30.25100000      20.76500000 
C      22.37100000      32.89900000      19.10800000 
C      22.74900000      32.71700000      17.57900000 
C      23.30900000      31.41000000      17.45700000 
H      24.15300000      32.52000000      20.23400000 
H      21.34400000      32.47800000      19.14200000 
H      22.36300000      33.93800000      19.52100000 
H      22.09800000      33.11300000      16.95900000 
H      23.79400000      33.58400000      17.51400000 
H      22.52000000      30.77100000      17.21400000 
H      24.12100000      31.30000000      16.76700000 
N      22.84100000      31.76100000      22.12400000 
C      22.15100000      31.16900000      23.28400000 
C      21.48700000      32.43300000      24.05200000 
O      21.52500000      33.25300000      24.04300000 
C      23.49900000      30.79600000      24.39500000 
C      24.38800000      29.73900000      24.04200000 
C      25.51700000      29.25400000      25.07800000 
C      23.56400000      28.32300000      23.49200000 
H      23.43700000      32.55200000      22.36200000 
H      21.73700000      30.41400000      23.17400000 
H      23.91600000      31.66000000      24.68000000 
H      22.84900000      30.44700000      25.43300000 
H      24.80700000      30.02100000      23.08200000 
H      25.90500000      28.79300000      24.79100000 
H      25.90100000      30.32800000      25.27900000 
H      24.86200000      29.12300000      25.95500000 
H      24.33300000      27.62300000      23.38100000 
H      22.98600000      28.01400000      24.48500000 
H      22.93000000      28.47700000      22.80000000 
N      20.37200000      31.65000000      25.02100000 
C      19.59400000      32.36300000      25.82700000 
C      20.28400000      33.11800000      26.97400000 
O      21.36800000      32.27900000      27.64200000 
C      18.34800000      31.73600000      26.30300000 
C      17.63500000      31.31200000      25.13000000 
C      15.96100000      30.58600000      25.75100000 
N      15.43000000      30.25100000      24.73400000 
C      14.16400000      29.15500000      24.74000000 
N      13.96600000      29.01800000      26.05800000 
N      13.72900000      28.91000000      23.93100000 
H      20.36500000      30.77400000      24.96200000 
H      19.27300000      33.42400000      25.20800000 
H      18.73700000      30.78600000      26.76200000 
H      17.93600000      32.24800000      27.01100000 
H      17.09100000      32.25700000      24.62400000 
H      17.81900000      30.71200000      24.53000000 
H      16.50000000      29.83000000      26.43400000 
H      15.60000000      31.39900000      26.42700000 
H      15.57400000      30.43000000      23.71800000 
H      14.27500000      29.25700000      26.82200000 
H      13.11800000      28.32000000      26.16700000 
H      14.03600000      29.13600000      22.79100000 
H      13.02500000      28.02200000      23.76500000 
N      19.93800000      34.19900000      27.63200000 
C      20.23500000      34.63600000      28.74000000 
C      20.29600000      33.79000000      29.97800000 
O      18.94700000      32.82500000      29.90600000 
C      19.63100000      36.04100000      28.92800000 
C      18.07400000      36.03700000      29.40000000 
C      16.94500000      35.59100000      27.90600000 
O      17.68000000      35.72900000      27.02300000 
O      16.17300000      35.45700000      28.25300000 
H      19.20600000      34.66600000      27.01900000 
H      21.39600000      34.93300000      28.79900000 
H      19.95300000      36.41900000      30.08100000 
H      19.78700000      36.63600000      28.41600000 
H      17.74300000      35.21900000      30.01700000 
H      17.70200000      36.78200000      29.62700000 
N      20.97000000      33.60600000      31.02300000 
C      20.80100000      32.84100000      31.97000000 
C      21.64000000      31.42500000      31.85500000 
O      21.52900000      30.65600000      33.00900000 
H      21.75800000      34.28800000      30.85000000 
H      21.26500000      33.32200000      32.96100000 
H      19.84600000      32.61800000      32.28500000 
N      22.09400000      30.99900000      31.02100000 
C      22.80800000      30.03100000      30.52000000 
C      24.21200000      30.04500000      29.98100000 
O      24.32800000      31.42000000      29.18500000 
C      22.10900000      28.83800000      29.70200000 
C      20.71900000      28.57700000      30.13500000 
C      20.21200000      27.54800000      31.15000000 
C      19.57900000      29.35900000      29.77000000 
C      19.53700000      27.23000000      31.48000000 
C      18.30700000      28.80300000      30.40700000 
C      17.95000000      28.13500000      31.05500000 
O      16.97600000      27.61800000      31.66200000 
H      22.08300000      31.90800000      29.93000000 
H      23.04100000      29.42900000      31.48300000 
H      21.93300000      29.42300000      28.63300000 
H      22.56700000      28.11300000      29.49200000 
H      21.42300000      26.91900000      31.41900000 
H      19.65200000      30.11000000      29.08800000 
H      19.07200000      26.38400000      32.31000000 
H      17.35700000      29.62800000      29.91000000 
H      16.15500000      28.13800000      31.34300000 
N      24.97400000      29.20900000      30.08500000 
C      26.76800000      29.57100000      29.49500000 
C      26.74500000      28.42400000      28.46400000 
O      26.11500000      27.65800000      27.94600000 
H      25.01700000      28.59900000      30.50100000 
H      26.54900000      30.47400000      29.02500000 
H      27.13200000      29.48600000      30.21400000 
N      28.10500000      28.49500000      28.04600000 
C      28.91000000      27.29200000      27.24300000 
C      29.63900000      26.45400000      28.15500000 
O      29.94400000      26.76100000      29.08900000 
C      29.69500000      28.38100000      26.27600000 
C      29.16400000      28.72900000      25.11500000 
C      30.08800000      29.49100000      24.12300000 
N      30.99300000      30.66700000      24.69700000 
C      30.33800000      31.76900000      24.60700000 
N      29.40500000      32.37300000      24.43300000 
N      31.69700000      32.59100000      25.28100000 
H      28.88000000      29.16500000      28.62700000 
H      28.06200000      27.03400000      26.68100000 
H      30.45900000      28.79200000      26.79400000 
H      30.51700000      27.31200000      25.80500000 
H      28.45200000      28.22300000      24.64100000 
H      28.42600000      29.74300000      25.59500000 
H      30.69200000      28.74200000      23.74300000 
H      29.44500000      29.84500000      23.17900000 
H      31.74900000      30.32100000      24.87700000 
H      28.58200000      31.63800000      23.99600000 
H      29.09900000      33.15000000      24.44800000 
H      32.21700000      32.50500000      25.43100000 
H      31.15300000      33.77700000      25.28400000 
N      29.65700000      25.45600000      27.50300000 
C      30.37400000      24.00400000      28.24700000 
C      31.82200000      24.41000000      27.72100000 
O      32.29500000      24.50500000      26.82200000 
C      29.72900000      23.00400000      27.68800000 
C      28.44100000      22.63200000      28.14400000 
C      30.50600000      21.63100000      28.24400000 
C      27.47100000      21.54800000      27.62400000 
H      29.40800000      25.12700000      26.69800000 
H      30.24800000      24.27500000      29.19700000 
H      29.92100000      22.86300000      26.57300000 
H      28.20300000      22.74600000      29.04400000 
H      27.76100000      23.70400000      27.66700000 
H      30.16500000      20.71200000      27.81000000 
H      31.70700000      21.69100000      27.95900000 
H      30.46400000      21.60800000      29.30100000 
H      26.55300000      21.60100000      27.61900000 
H      27.76800000      21.46500000      26.19700000 
H      27.95200000      20.65700000      27.82600000 
N      24.52500000      17.45400000      27.84800000 
C      23.66100000      18.27700000      27.42100000 
C      22.47600000      18.63700000      28.16000000 
O      21.94100000      19.58800000      28.51200000 
C      23.46400000      17.78700000      25.86800000 
C      22.46500000      18.93900000      24.94900000 
C      21.26200000      19.26000000      25.23300000 
C      23.54900000      19.89400000      24.47000000 
H      24.89400000      16.63200000      27.37100000 
H      24.13000000      19.31800000      27.38600000 
H      24.25300000      17.65400000      25.50800000 
H      22.80000000      16.92800000      25.98800000 
H      22.52200000      18.10800000      24.00400000 
H      20.69600000      19.59400000      24.44000000 
H      20.58500000      18.32300000      25.64200000 
H      21.16200000      19.91100000      26.09000000 
H      22.87700000      20.60000000      23.70900000 
H      23.69700000      20.66100000      25.28300000 
H      24.33500000      19.67000000      23.99600000 
N      21.78600000      17.37800000      28.55900000 
C      20.54500000      17.16100000      29.44600000 
C      20.14900000      17.79900000      30.86300000 
O      19.85800000      17.88000000      31.21100000 
C      19.67100000      15.96200000      29.21500000 
C      20.48800000      15.08000000      29.82500000 
C      18.23300000      16.13400000      29.09700000 
H      22.17500000      16.40400000      28.35100000 
H      19.80000000      18.21800000      28.80300000 
H      20.01800000      15.70400000      27.89500000 
H      19.92700000      13.79000000      29.58300000 
H      21.41700000      14.80100000      29.83600000 
H      20.13500000      15.00900000      30.99800000 
H      17.79500000      15.13500000      28.92200000 
H      17.95600000      16.31200000      30.23100000 
H      17.89000000      16.77000000      28.58700000 
N      21.96700000      17.48600000      31.08300000 
C      21.80700000      18.11800000      32.95600000 
C      22.36500000      19.67800000      32.74500000 
O      21.67900000      20.30000000      33.58300000 
C      23.07200000      17.29700000      33.25100000 
O      23.20700000      17.77700000      34.79100000 
H      22.48100000      17.31900000      30.92000000 
H      21.17200000      17.98100000      33.15800000 
H      22.74700000      16.22400000      33.40200000 
H      23.99700000      17.37600000      32.84700000 
H      23.81200000      17.30900000      35.19300000 
N      23.06100000      19.97600000      31.87800000 
C      23.50000000      21.59000000      32.06000000 
C      22.54600000      22.49400000      31.61100000 
O      22.24400000      23.36800000      32.00700000 
C      24.80500000      21.51500000      30.90600000 
C      25.81400000      23.06100000      31.20800000 
C      26.35400000      23.11500000      31.59800000 
C      24.88200000      23.98700000      29.88900000 
C      27.30200000      24.31500000      31.93400000 
C      25.85400000      25.10500000      30.16100000 
C      26.56600000      25.40800000      30.76000000 
H      23.64500000      19.40400000      31.15500000 
H      23.80400000      21.71500000      32.71000000 
H      25.59100000      20.73800000      31.30500000 
H      24.55100000      21.23000000      29.84200000 
H      26.92600000      22.39000000      32.53200000 
H      24.35300000      23.71400000      29.46100000 
H      27.97300000      24.56200000      32.45000000 
H      25.37700000      25.85500000      29.38200000 
H      27.27500000      26.32400000      30.90800000 
N      21.63800000      22.12100000      30.07500000 
C      20.51900000      22.92100000      30.02600000 
C      19.18200000      22.14000000      30.14200000 
O      19.29300000      21.03100000      30.58600000 
C      20.65100000      22.95000000      28.18300000 
C      21.71600000      23.43900000      27.60600000 
C      23.14600000      22.89200000      26.79300000 
C      22.13700000      25.02200000      27.52100000 
C      23.88600000      23.51400000      26.44400000 
C      23.04300000      25.49000000      27.02100000 
C      24.02800000      24.56400000      26.37400000 
O      25.15300000      25.44300000      25.79900000 
H      22.04000000      21.02200000      29.74000000 
H      20.74600000      23.85900000      30.08800000 
H      20.59900000      21.75200000      27.81600000 
H      19.81200000      23.33200000      27.89600000 
H      22.78100000      21.73200000      26.97800000 
H      21.21000000      25.53500000      28.05100000 
H      24.73700000      22.81100000      25.87100000 
H      23.16800000      26.68900000      27.00400000 
H      25.32300000      26.24800000      26.05300000 
N      18.41700000      23.19100000      30.35900000 
C      16.91600000      22.41300000      30.55400000 
C      16.59000000      21.68400000      29.50500000 
O      16.97700000      21.63300000      28.48300000 
C      16.06200000      23.67500000      30.76600000 
C      14.83300000      23.75900000      31.85800000 
C      15.37200000      23.84500000      33.12700000 
C      13.76400000      25.07900000      31.35000000 
H      18.33100000      24.03100000      29.82700000 
H      16.89900000      22.27200000      31.59900000 
H      16.65800000      24.90800000      30.85900000 
H      15.52400000      24.02000000      29.53700000 
H      14.40900000      22.85500000      31.62900000 
H      14.72400000      23.96100000      33.77100000 
H      16.16900000      23.20800000      33.35100000 
H      15.98400000      24.97800000      33.19700000 
H      13.13000000      24.87100000      32.04400000 
H      14.25500000      25.66900000      31.37200000 
H      13.42300000      24.68100000      30.42100000 
N      15.66500000      20.75400000      30.03900000 
C      15.00100000      19.76200000      28.95800000 
C      14.12400000      20.20800000      27.75100000 
O      14.31300000      19.99500000      26.87700000 
C      14.26500000      18.53800000      29.75400000 
C      13.84200000      17.37700000      28.70900000 
C      13.38300000      16.20200000      30.05000000 
O      12.55700000      16.51600000      30.50600000 
O      13.91000000      15.39400000      29.59900000 
H      15.36300000      20.59700000      30.93300000 
H      15.93600000      19.23000000      28.40300000 
H      15.11700000      18.19800000      30.45800000 
H      13.56300000      19.07000000      30.45900000 
H      12.87100000      17.86800000      28.35800000 
H      14.41100000      17.21700000      28.30000000 
N      13.17400000      21.20000000      28.16900000 
C      12.37300000      21.78600000      27.36700000 
C      13.03100000      22.59900000      26.60200000 
O      12.71000000      22.59600000      25.03700000 
C      11.07000000      22.36000000      28.01000000 
O      10.60600000      21.52100000      28.94200000 
C      10.23900000      23.09800000      27.02400000 
H      12.98500000      21.39400000      29.33800000 
H      11.75900000      20.96100000      26.76000000 
H      11.66200000      23.35300000      28.82000000 
H       9.91400000      21.86500000      29.62700000 
H       9.25500000      23.61500000      27.87300000 
H      10.50400000      23.91500000      26.65400000 
H       9.70800000      22.43900000      26.60600000 
N      13.89500000      23.50800000      26.48900000 
C      14.78300000      24.23800000      25.96900000 
C      15.79700000      23.49100000      25.34900000 
O      15.98300000      23.75300000      23.98500000 
C      15.33900000      25.37800000      26.82800000 
C      16.65800000      26.17400000      26.25500000 
C      16.45500000      26.66200000      25.06900000 
C      17.70000000      26.24700000      27.15400000 
C      17.75800000      27.46300000      24.63800000 
C      18.97100000      27.18700000      26.51000000 
C      18.82000000      27.50700000      25.60500000 
O      19.86900000      28.36700000      24.90500000 
H      14.14200000      23.43100000      27.95900000 
H      14.09400000      24.78200000      25.26200000 
H      14.64100000      26.05600000      27.15400000 
H      15.75800000      24.87800000      27.81000000 
H      15.74900000      26.63800000      24.43700000 
H      17.77000000      25.83100000      28.07300000 
H      17.64200000      27.92800000      23.54000000 
H      19.63100000      27.14200000      27.26300000 
H      20.61400000      28.24200000      25.38400000 
N      16.36600000      22.48700000      25.56000000 
C      17.24600000      21.60000000      25.26900000 
C      16.55600000      20.87300000      23.80000000 
O      17.43600000      20.76400000      22.82600000 
H      16.23200000      22.25300000      26.90000000 
H      18.21800000      22.15200000      24.74900000 
H      17.58200000      20.84300000      25.71400000 
N      15.52900000      20.64300000      23.82800000 
C      14.81900000      20.11000000      22.77900000 
C      14.63700000      21.16700000      21.18600000 
O      14.83500000      20.84100000      20.60300000 
C      13.43900000      19.39100000      22.76500000 
H      14.89100000      20.67400000      24.73300000 
H      15.26700000      19.27100000      22.28000000 
H      12.82500000      19.40400000      22.24700000 
H      13.36000000      18.83800000      23.72800000 
H      12.63800000      20.62300000      23.56700000 
N      14.49200000      22.27800000      22.03700000 
C      14.52500000      23.52700000      20.88900000 
C      16.12300000      23.82300000      20.47100000 
O      16.05000000      24.00900000      19.24000000 
C      13.87500000      24.69900000      21.59900000 
C      12.40100000      24.66000000      21.80500000 
C      11.78700000      25.91200000      22.46600000 
O      12.51700000      26.38900000      23.56000000 
O      10.85800000      26.39800000      22.14100000 
H      14.38800000      22.66700000      22.85300000 
H      13.85800000      23.16200000      20.02700000 
H      14.42700000      25.05800000      22.40000000 
H      14.00100000      25.61800000      20.72200000 
H      11.78900000      24.43100000      20.98600000 
H      12.23800000      23.78600000      22.60300000 
N      16.60500000      23.80300000      21.08000000 
C      18.21700000      24.21200000      20.90200000 
C      18.74700000      23.14500000      20.07200000 
O      19.61400000      23.46300000      19.02100000 
C      19.08000000      24.28900000      22.44300000 
C      20.52600000      24.63600000      22.17800000 
C      20.70300000      26.16500000      21.82700000 
C      21.37100000      24.36000000      23.21300000 
H      16.65100000      23.70800000      22.39700000 
H      18.30900000      25.01600000      20.48200000 
H      18.62600000      24.82900000      22.88400000 
H      19.07700000      23.22800000      22.73500000 
H      21.01700000      24.02900000      21.26900000 
H      21.67000000      26.39700000      21.57700000 
H      20.11200000      26.35500000      20.74800000 
H      20.25200000      26.70500000      22.44100000 
H      22.32200000      24.64300000      23.29200000 
H      20.89000000      24.90300000      24.27700000 
H      21.31800000      23.27900000      23.62400000 
N      18.38700000      21.67300000      20.40500000 
C      19.20000000      20.64700000      19.39900000 
C      18.63100000      20.92100000      17.94700000 
O      19.21000000      20.80000000      17.21300000 
C      18.59000000      19.34900000      19.94900000 
O      19.12500000      19.19600000      21.34100000 
C      18.91400000      18.25300000      19.13900000 
H      18.02600000      21.61400000      21.03800000 
H      19.96600000      20.76100000      19.44400000 
H      17.37000000      19.39300000      20.11100000 
H      18.60800000      19.63200000      22.00800000 
H      18.71400000      17.27900000      19.65100000 
H      18.53400000      18.25200000      18.21700000 
H      20.08700000      18.22100000      19.01900000 
N      17.24400000      21.30700000      17.75800000 
C      16.55300000      21.43700000      16.40700000 
C      17.46000000      22.50000000      15.47600000 
O      17.63300000      22.59300000      14.77500000 
C      15.44600000      21.75300000      16.61600000 
H      16.66400000      21.40000000      18.61900000 
H      16.95600000      20.67000000      15.88800000 
H      14.81400000      21.89300000      15.42700000 
H      14.72000000      20.85700000      16.95000000 
H      14.98300000      22.66000000      17.11600000 
N      17.84400000      23.88300000      16.46500000 
C      18.48800000      24.90100000      15.77200000 
C      19.75900000      24.39100000      15.23800000 
O      20.12700000      24.89000000      14.16400000 
C      18.76200000      25.97100000      16.96000000 
C      17.48800000      27.12900000      17.19000000 
O      16.30200000      26.58400000      16.66900000 
N      17.85800000      27.72000000      17.55900000 
H      17.46900000      23.80300000      17.49400000 
H      17.91600000      25.15400000      15.06500000 
H      19.01100000      25.62900000      17.77600000 
H      19.51500000      26.63500000      16.42600000 
H      16.97200000      28.78300000      17.93600000 
H      18.83300000      28.34100000      17.98800000 
N      20.68000000      23.84700000      15.68700000 
C      21.80200000      23.28400000      15.53900000 
C      21.81500000      22.46200000      14.02200000 
O      22.39300000      22.45300000      13.26600000 
C      23.17500000      22.83400000      16.88200000 
C      24.49300000      22.69400000      15.89900000 
C      22.74800000      23.66500000      17.66400000 
H      20.28400000      23.17300000      16.97000000 
H      22.43800000      24.16500000      14.96900000 
H      22.51000000      21.75800000      16.87000000 
H      24.84300000      22.36000000      16.62500000 
H      24.31600000      22.13800000      15.19200000 
H      24.60500000      23.57200000      15.76100000 
H      23.66800000      23.22200000      18.51400000 
H      23.12900000      24.67600000      17.60400000 
H      21.96700000      23.68100000      18.35500000 
N       9.65500000      15.26100000      20.17500000 
C       9.97800000      16.41800000      21.49100000 
C       8.76700000      17.00800000      21.80800000 
O       8.78500000      17.26400000      23.42800000 
C      10.84200000      17.54800000      20.91100000 
O      10.17800000      18.17800000      19.75300000 
C      12.44300000      17.04400000      20.60900000 
H       9.99800000      15.53200000      19.47600000 
H      10.51200000      15.82900000      22.17300000 
H      11.04800000      18.09200000      21.67200000 
H       9.90000000      17.90200000      19.26100000 
H      12.80900000      17.79600000      20.08100000 
H      12.72800000      16.58800000      21.12600000 
H      12.18600000      16.27800000      19.59600000 
H      12.55886952      10.81301043      29.98698341 
H      11.52274209      11.25259383      27.44156625 
H      16.08675921      10.42262841      25.84343154 
H      31.20068174      23.79594414      15.46043801 
H      32.53910398      24.65823904      28.37225975 
H      25.29475002      17.88800861      28.01865005 
H      21.08104385      21.82235596      13.79360590 
H      10.00467699      14.45932358      20.38722847 
H       8.09578211      17.18925275      21.08924136 
