 523 
 
N                32.4406354579       30.2821131607       28.8268506779
C                31.5087799715       29.3989616251       28.1524510513
C                32.1057268079       28.8286768031       26.8564988791
O                31.3886396460       28.3092157324       26.0110462249
C                30.1241596436       30.0222948932       27.9573248165
C                29.3217451225       29.9381673296       29.2563337249
C                28.0021162603       30.7031007681       29.1732531292
N                27.3466040359       30.6230561330       30.4674790242
C                26.0766884568       30.9086900902       30.7215502368
N                25.2429822794       31.2613355930       29.7403841313
N                25.5940574022       30.6660261214       31.9383089304
H                32.5174790521       31.2461549279       28.5304525377
H                31.4062220928       28.5165348305       28.8049172967
H                30.2488084564       31.0641364288       27.6514211022
H                29.6176611052       29.4694960795       27.1655741623
H                29.1079698394       28.8966699487       29.4934350492
H                29.9389747690       30.3468040702       30.0560750715
H                28.1997543392       31.7451276445       28.8899587530
H                27.3635588641       30.2501271499       28.4114635215
H                27.9436204934       30.4686077551       31.2708124979
H                25.6190600420       31.6544040007       28.8930900181
H                24.2967506428       31.5167378982       29.9767971424
H                26.2468395223       30.4653764201       32.6823287205
H                24.6748739228       30.9935826754       32.1878149191
N                33.4389108633       28.8786021704       26.7533108174
C                34.2037875008       28.1498605325       25.7479245439
C                34.1722102278       26.6743285551       26.1850539626
O                35.0892462857       26.1629825794       26.8079931221
C                35.6693821467       28.5621471857       25.6930285818
C                36.0119917820       29.8818124278       24.9999949992
C                35.7100433656       29.8280268294       23.5042470335
C                35.3064057536       31.0697926622       25.6471029847
H                33.9714245018       29.3032656835       27.4973284319
H                33.7150937894       28.2709320896       24.7782446750
H                36.0581424153       28.5732343770       26.7159968581
H                36.1695054995       27.7537247956       25.1539400617
H                37.0935272434       30.0178245850       25.1223716290
H                36.2159791634       30.6501987669       23.0017057890
H                36.0687880679       28.8987313446       23.0678179342
H                34.6421379899       29.9207481144       23.3263920082
H                35.6123088893       31.9939513102       25.1623995969
H                34.2289455003       30.9815625450       25.5473455536
H                35.5568896650       31.1504514132       26.7043059421
N                33.0392632004       26.0214215144       25.8912145330
C                32.8429397424       24.7192476357       26.4975102071
C                33.9403163379       23.7418424778       26.0588321742
O                34.4186319886       22.9553337657       26.8701437889
C                31.4158836560       24.2239278209       26.2770154632
C                30.4192575272       25.1143413286       26.9728608937
C                29.3544880161       25.6580237230       26.2671798571
C                30.5364301031       25.4016065691       28.3294300572
C                28.3930101810       26.4109628853       26.9113410814
C                29.5917395984       26.1666844026       28.9831076842
C                28.4901031859       26.6477316912       28.2779429710
O                27.5436100439       27.3494961459       28.9337161387
H                32.2252046500       26.5491315595       25.5830323010
H                33.0218150403       24.8129965692       27.5788566770
H                31.1879476406       24.1759729702       25.2124306279
H                31.3603796113       23.2079500554       26.6744479827
H                29.2707947787       25.4808463870       25.2074118085
H                31.3769152100       25.0206717838       28.8923440827
H                27.5578443632       26.8057151449       26.3559857676
H                29.7051722708       26.3732771177       30.0359283181
H                26.7922141719       27.5031608888       28.3418156915
N                34.3588854233       23.8159976302       24.7912663028
C                35.4834974615       23.0475042063       24.2973032447
C                36.4948022570       24.0260199781       23.6923415375
O                36.2871720062       25.2221215263       23.5975666363
C                34.8334500198       22.2421938869       23.1667745549
C                33.9268696131       23.2982431166       22.5173021438
C                33.6510572420       24.3333500513       23.6317578574
H                35.9417339228       22.4445863514       25.0854640499
H                35.5514131181       21.8055574619       22.4774243349
H                34.2427618992       21.4334437482       23.5993871574
H                34.4342931488       23.7690948751       21.6768670491
H                33.0060920065       22.8517972318       22.1532756477
H                34.0694792660       25.3073768688       23.3642342128
H                32.5913378202       24.4340746827       23.8410991747
N                40.9824328993       33.8401903038       27.3609678906
C                40.6534643040       32.8711505290       26.3366880827
C                41.1707830554       33.2967202368       24.9524112790
O                40.5781991868       33.0330111413       23.9191309854
C                39.1648598257       32.4862956032       26.3020471974
C                38.1131864091       33.6094837743       26.3793618416
C                37.9022789125       34.1646829176       27.7914422743
C                38.3624054615       34.7288270689       25.3711634612
H                40.5204230131       34.7341936491       27.2884337039
H                41.2305215154       31.9694315512       26.5781534819
H                39.0231928782       31.9614170518       25.3542379509
H                38.9653398772       31.7904975845       27.1203746729
H                37.1647011922       33.1331893540       26.1106849825
H                36.9330847693       34.6569743100       27.8667671821
H                37.9008423573       33.3735039665       28.5398057362
H                38.6515604132       34.8949058642       28.0888463438
H                37.5268546805       35.4252566766       25.3800886415
H                39.2676131074       35.2857007805       25.6036849958
H                38.4690313557       34.3120838848       24.3734901007
N                38.6347384658       23.4774593181       12.2072560807
C                37.4133259927       22.9824553716       12.8204734328
C                37.7306737395       21.7215128349       13.6350957054
O                38.7244372964       21.0393929738       13.4213254949
C                36.4871602032       22.7004366245       11.6332066408
C                37.4680670405       22.3486021933       10.5186243681
C                38.6080194989       23.3369111461       10.7592747076
H                36.9996165761       23.7309147541       13.5069321874
H                35.7721605029       21.9104533963       11.8543540730
H                35.9387153149       23.6107440151       11.3882242933
H                37.8256454104       21.3281491473       10.6587404186
H                37.0318817930       22.4511809963        9.5291949577
H                39.5579076720       22.9639533805       10.3826975495
H                38.3877761404       24.3132944331       10.3120457451
N                36.8097532827       21.4349550446       14.5635494819
C                36.9829300366       20.3931451898       15.5519852759
C                35.7858502544       19.4316358119       15.5414729756
O                34.7464902044       19.6933466836       14.9528551724
C                37.1469692175       21.0204787902       16.9477620434
C                38.5699517943       21.5153657428       17.1907645100
S                38.7742151315       22.0816626791       18.9042960845
C                39.7371211479       20.7111208514       19.6222803385
H                36.0311050221       22.0764721993       14.6936503038
H                37.8874252265       19.8331517777       15.2776594806
H                36.4522947561       21.8658294107       17.0170621015
H                36.8780514251       20.2824854741       17.7084437752
H                39.3071341869       20.7275444845       17.0146106144
H                38.8125582535       22.3592294050       16.5389217446
H                40.0076013758       21.0043846979       20.6289848466
H                39.1408013533       19.8053876448       19.6410436507
H                40.6283016895       20.5507764944       19.0235134062
N                35.9715366644       18.3197817973       16.2563712112
C                35.0070568346       17.2639273967       16.4501146749
C                34.8440502168       17.0697870956       17.9567043649
O                35.8173285965       17.1218368586       18.6973433389
C                35.5479514347       15.9433908241       15.8049246590
O                36.9562960116       16.0180099400       15.7881380137
C                34.9884829829       15.8123200243       14.3888603548
H                36.8849894234       18.0979037811       16.6234930871
H                34.0625628993       17.5599342762       15.9875923687
H                35.2048426849       15.0908954146       16.4095012912
H                37.3851365804       15.1670882400       16.0278787543
H                35.3600819340       14.9009812579       13.9297548178
H                33.9015551764       15.7924620526       14.4179595579
H                35.3235663617       16.6689394487       13.8114378414
N                33.5928974062       16.8774692538       18.3929051919
C                33.2390098550       16.6445718616       19.7822310075
C                32.2541512678       15.4712384396       19.8300912472
O                31.7720429890       15.0138746950       18.7989872946
C                32.5449412157       17.8794637311       20.4017234265
C                33.2566083438       19.1863993397       20.1635653179
C                34.6381613683       19.2956300625       20.1884667902
C                32.5216483427       20.3462567674       19.9451461052
C                35.2706263093       20.4968966523       19.9312148470
C                33.1394972322       21.5576414841       19.7110204787
C                34.5271378325       21.6369423271       19.6647212024
O                35.1120708431       22.8289854872       19.3784186171
H                32.8489625844       16.6707529066       17.7367713487
H                34.1452117504       16.3989890351       20.3430977799
H                31.5339642344       17.9495050416       19.9949734330
H                32.4711768466       17.7002423786       21.4768983966
H                35.2443709311       18.4273046236       20.3788501751
H                31.4445142265       20.2952373690       19.9658547800
H                36.3505002922       20.5496002960       19.9189012114
H                32.5587863662       22.4510637204       19.5585616296
H                36.0754939048       22.7289207833       19.3537304408
N                28.7573979710       14.0256285150       22.4617884334
C                27.8729548624       14.0869943280       23.6085076214
C                27.3301250573       12.6769342887       23.8380880792
O                26.7629685934       12.0735112431       22.9317435873
C                26.6844288918       15.0302388898       23.3267373764
C                27.1630123252       16.4773164002       23.1591703983
C                25.6750510895       14.9146927743       24.4657150193
C                26.2582813328       17.2881982657       22.2389764507
H                28.3992180322       13.4993637014       21.6757455400
H                28.4376447664       14.4342958163       24.4782544527
H                26.2216010133       14.6884746573       22.3926317285
H                27.2042243956       16.9319375338       24.1504345592
H                28.1749787306       16.4794511990       22.7507643765
H                24.8855031136       15.6535297760       24.3594891051
H                25.2256570626       13.9231529357       24.4796481589
H                26.1741072084       15.0700974732       25.4214619179
H                26.5730398121       18.3289263944       22.2140697944
H                26.3058231300       16.8892040234       21.2286840734
H                25.2283171770       17.2421554243       22.5791712501
N                31.2393462453       18.7911432037       12.9031410831
C                32.3319089925       19.7446277371       12.9184678466
C                31.8479425617       21.0906240312       13.4848032876
O                30.8100537501       21.6137286747       13.1040334388
C                32.8403005285       19.9499773561       11.4894058016
C                33.3369785903       18.6435409140       10.8701705918
C                32.2156514589       17.7619388402       10.3441015287
O                31.0644493479       18.1490235625       10.1823659705
N                32.5910731607       16.5128152658       10.0335287679
H                30.6839431753       18.7709747063       12.0534131202
H                33.1213884767       19.3455964283       13.5631390566
H                32.0322874831       20.3595615283       10.8787316466
H                33.6518584454       20.6741280765       11.5242698394
H                33.9930037628       18.8649136735       10.0265167305
H                33.9156738386       18.0871098625       11.6084737171
H                33.5230436256       16.1787169645       10.2089767960
H                31.8962691720       15.8631924346        9.7006159358
N                32.6606566362       21.6310106609       14.4009642787
C                32.3597479794       22.8891087951       15.0443831586
C                33.5142880691       23.8627026733       14.8229369393
O                34.6867578621       23.4941281327       14.8207768289
C                32.0731159983       22.6767652474       16.5451158940
C                31.6358036928       23.9874198302       17.1874828332
C                30.9876073913       21.6136632278       16.7045154507
H                33.5116114912       21.1459986948       14.6608939859
H                31.4564431073       23.2733700671       14.5563678929
H                32.9992118559       22.3349117499       17.0209232503
H                31.3832353556       23.8129867552       18.2287701418
H                32.4361650227       24.7213034556       17.1446307824
H                30.7582385449       24.3834142857       16.6811714625
H                30.6917892710       21.5415250630       17.7458759881
H                30.1182248565       21.8881255379       16.1103506972
H                31.3412404828       20.6438970695       16.3650910637
N                33.1442492579       25.1275218882       14.5889999182
C                34.1004373549       26.2039723000       14.4499243946
C                34.4914633813       26.7336827296       15.8398677472
O                34.0698275785       26.2245742915       16.8682797765
C                33.5459938043       27.3182610298       13.5648962322
C                33.2255190617       26.8865633154       12.1409518074
C                32.1075469130       27.8088173653       11.5430826044
O                31.1403482150       28.0597040375       12.2885073774
O                32.2692364824       28.2029202365       10.3742386687
H                32.1787234953       25.4093028405       14.7509350467
H                35.0123143029       25.7840439607       14.0001411575
H                32.6225750834       27.6905543436       14.0118540366
H                34.2672436035       28.1353235362       13.5298862215
H                34.1038775635       26.9290363645       11.4941989565
H                32.8328597864       25.8668273665       12.1284410898
N                35.2904495834       27.8116397809       15.8209090711
C                36.1365218245       28.1430676994       16.9415873595
C                36.0145042485       29.5557225715       17.5370305215
O                36.9831130059       30.0354310867       18.1267314034
C                37.5875384735       27.8901439804       16.5036192015
C                37.9614216733       28.6532325646       15.1955706047
O                37.2130427687       28.5227275633       14.1982285753
O                39.0089037397       29.3250233093       15.2202647713
H                35.7523600161       28.0600610968       14.9380375653
H                35.8738389885       27.4593402656       17.7676583961
H                38.2760809995       28.2132231235       17.2825560486
H                37.7210083043       26.8209014788       16.3040805547
N                34.8506449652       30.2118332975       17.4981558692
C                34.7199485944       31.5198533735       18.1217796318
C                34.1704685946       31.3947009009       19.5523489124
O                33.5923519562       30.4031659644       19.9639352344
C                33.6799240607       32.2153569230       17.2419069734
C                32.7230681706       31.0684152314       16.9108155877
C                33.6031933221       29.8125436895       16.8750765606
H                35.6990140232       32.0044429734       18.1345271071
H                33.1831605841       33.0321713387       17.7592140790
H                34.1559482298       32.5941264209       16.3392292414
H                31.9789982062       30.9700296718       17.6990238432
H                32.2382786535       31.2169215722       15.9488314185
H                33.1693834460       28.9841090440       17.4449562604
H                33.7844994541       29.4778720109       15.8525432042
N                34.2509618960       32.5403499752       20.2509082452
C                34.0298300086       32.5981666807       21.6870944019
C                32.7437153434       31.8845928869       22.0940619775
O                32.7213195668       31.0486193834       22.9802848270
C                33.9925849816       34.0736359412       22.1156545633
O                35.1019212007       34.7169253589       21.5326398935
H                34.8537217180       33.2840514348       19.9204941202
H                34.8629093666       32.1032140201       22.2012821986
H                33.0568605572       34.5353476990       21.7743858535
H                34.0387861012       34.1171313472       23.2095957088
H                35.1495939520       35.6250976005       21.8536928033
N                31.6253911516       32.3078865080       21.4799882359
C                30.3353789849       31.7597911169       21.8611170432
C                29.3281646710       31.7816420477       20.7152970182
O                28.1408490077       31.9449000064       20.8971440489
C                29.7440204174       32.4209884871       23.1232929801
C                29.3263954601       31.3660861627       24.1521264782
O                28.2113142784       31.3188517982       24.6419885781
N                30.3061305210       30.5110128917       24.4565754430
H                31.6617586345       33.0157280089       20.7613144978
H                30.5097884178       30.6959600863       22.0741349498
H                30.4894879824       33.0745647616       23.5765002134
H                28.8665288718       33.0101948181       22.8542246748
H                30.1660472310       29.7158221781       25.0638960285
H                31.2317197444       30.6125158828       24.0589129897
N                29.8643138687       31.5459572133       19.4989931126
C                29.0009337556       31.4238857566       18.3409691981
C                28.8619924834       29.9231960055       18.0650982789
O                28.1804180183       29.2499684725       18.8287901300
C                29.4367524726       32.3620960684       17.2043545506
O                29.9406156181       33.5322573796       17.8053270603
H                30.8511593048       31.3556341426       19.4070411389
H                28.0245818365       31.7604529318       18.7153624492
H                30.2074980010       31.9142367084       16.5673986032
H                28.5638173479       32.5677975206       16.5758120007
H                29.9984899691       34.2307754081       17.1430945253
N                29.5996541736       29.3775715432       17.0886399889
C                29.4520692410       27.9852494975       16.6877882352
C                29.2617085805       27.0774447634       17.9120888065
O                28.2768214536       26.3618591606       18.0084421767
C                30.6637949776       27.5757969708       15.8257949142
O                30.4689625129       26.3502072941       15.1669980747
H                30.0912985094       29.9693303743       16.4323413582
H                28.5437264452       27.8660717637       16.0775120686
H                30.8504552229       28.3769212115       15.0996260866
H                31.5547387946       27.4497112577       16.4476036501
H                30.0464881223       26.5137409001       14.3149131982
N                30.1973432565       27.1420934414       18.8621386785
C                30.1321970099       26.2898746898       20.0402029282
C                28.6960367863       26.2129196764       20.5758583405
O                28.1581506266       25.1449257352       20.8095283051
C                31.1237678598       26.7686288721       21.1365539686
C                31.2886876693       28.2887173095       21.1665294727
C                30.6932978719       26.2872710621       22.5257022149
H                31.0655391065       27.6260912313       18.6943587546
H                30.3916977339       25.2624049953       19.7524633584
H                32.0962486963       26.3258785846       20.8970884631
H                31.7891405465       28.5685941393       22.0896695702
H                31.9156502997       28.6559253258       20.3573503673
H                30.3210540177       28.7809871520       21.1246048247
H                31.5206515762       26.4389536583       23.2147448787
H                29.8418472052       26.8666944009       22.8731165871
H                30.4245340235       25.2342139119       22.4995160141
N                28.1616777407       27.3952170118       20.9395451672
C                26.8879505149       27.4258620565       21.6293755647
C                25.7627786713       26.9271046763       20.7268744290
O                24.9559074517       26.0897714034       21.1029647815
C                26.5943282813       28.8409422382       22.1372770618
C                25.3499018280       28.8721143562       23.0273089924
C                25.6290869726       28.3195937699       24.4346375203
N                24.6870032314       27.2750657432       24.7895766255
C                24.2469093643       26.9674555420       26.0042608570
N                24.6105214748       27.6725567786       27.0855787421
N                23.4517235647       25.9143985506       26.1417576267
H                28.4007994914       28.2198912642       20.4054386862
H                26.9646980868       26.7100733719       22.4550729300
H                27.4554968444       29.2091577814       22.6972956119
H                26.4578659572       29.4994876515       21.2787033127
H                25.0119993385       29.9032982856       23.0945508304
H                24.5633866968       28.2909325314       22.5450032266
H                26.6458044766       27.9175449058       24.4622984989
H                25.5720814596       29.1444230257       25.1444667560
H                24.3996837632       26.6489995264       24.0388670435
H                25.0204810135       28.5847841049       26.9532935963
H                24.1185035208       27.5034709728       27.9511386807
H                23.1835566740       25.3890837808       25.3197884523
H                23.1000697478       25.6198790023       27.0376014924
N                25.7159272164       27.5280109024       19.5307614752
C                24.7512612767       27.1163842337       18.5365756889
C                24.6881240269       25.5913340945       18.4428139158
O                23.6630585464       24.9842099026       18.7208453804
H                26.4661587876       28.1455905739       19.2505502686
H                23.7483407831       27.4674269344       18.8019578378
H                25.0231497960       27.5161282351       17.5616254330
N                25.8393998484       25.0093393856       18.1095630187
C                25.9296028481       23.6052723931       17.7589213022
C                25.4849996388       22.7237134625       18.9218826599
O                24.7528354139       21.7507723116       18.7481177569
C                27.3584314829       23.2663965115       17.3577721856
H                26.6613087044       25.5709593456       17.9197927190
H                25.2440766539       23.4111206507       16.9213858811
H                27.4368474760       22.2059334233       17.1351927820
H                27.6320633646       23.8307047809       16.4697969234
H                28.0418846970       23.5263470673       18.1612983404
N                25.9743659476       23.0449374176       20.1188584546
C                25.5483667859       22.3122749975       21.2985281305
C                24.0199966793       22.3304361588       21.3556112340
O                23.3583992617       21.3020659360       21.4480382009
C                26.1819002877       22.8935025182       22.5705361992
C                25.4119397093       22.4343194433       23.8078304441
C                27.6482684459       22.4762321619       22.6607881462
H                26.5945545956       23.8379589023       20.2350322255
H                25.8315871361       21.2597040374       21.1712689395
H                26.1245127424       23.9821015460       22.4915893300
H                25.9515898775       22.7235936721       24.7034381597
H                24.4203137314       22.8764398687       23.8286749945
H                25.3036418167       21.3527281456       23.7971621426
H                28.0856563734       22.8682169607       23.5746159846
H                27.7311176670       21.3918391038       22.6691952347
H                28.2048309752       22.8661683372       21.8133701920
N                23.4823063374       23.5502928161       21.3526574909
C                22.0502109174       23.7214003110       21.4064205143
C                21.3473274187       22.9148349420       20.3153531289
O                20.2973510576       22.3236258432       20.5541834411
C                21.6848142406       25.1945637705       21.2637610428
C                22.2240632365       26.0109391259       22.4242669704
O                22.8933097326       25.5299307713       23.3263190643
N                21.9049288166       27.3088074037       22.3911296715
H                24.0468993445       24.3842264101       21.2343892398
H                21.6845419813       23.3384583613       22.3680571883
H                22.0987850883       25.5613115867       20.3220241995
H                20.5990655672       25.2945760351       21.2157846781
H                22.1632960562       27.9107662237       23.1594586747
H                21.3324553228       27.6866907866       21.6556656901
N                21.9447564055       22.9299178595       19.1307843689
C                21.3360264290       22.3540977185       17.9574204941
C                21.1818577976       20.8507350915       18.1358987259
O                20.1642286674       20.2566870920       17.7820896906
C                22.2001088759       22.6181845251       16.7315041880
C                22.3729053440       24.1447808400       16.3967216835
O                21.4645248923       24.9143103325       16.7497156170
O                23.4073783483       24.4381324443       15.7641500377
H                22.7200539156       23.5627781844       18.9623166724
H                20.3391937218       22.7924180056       17.7956756144
H                23.1906501895       22.1816489814       16.8625592734
H                21.7383202548       22.1647217712       15.8515064067
N                22.2446842080       20.2366307942       18.6547074078
C                22.2482984683       18.8014739657       18.8491680946
C                21.2883703951       18.4544611939       19.9882612057
O                20.4816705145       17.5364154955       19.8736185289
C                23.6576497162       18.2427675751       19.0864980309
C                23.9731768181       17.0549869468       18.1639230725
C                25.4450999086       16.6631342110       18.2635905850
C                23.1045934783       15.8412723689       18.4884717293
H                23.0762474928       20.7714725056       18.8766049881
H                21.8194155491       18.3478806530       17.9442741469
H                24.3729559149       19.0458084013       18.8983850514
H                23.7649219307       17.9305540438       20.1265625523
H                23.7696527840       17.3636137082       17.1317318973
H                25.6584036645       15.8503241749       17.5728675078
H                26.0891598831       17.5054792904       18.0241780124
H                25.6767521722       16.3184324550       19.2681081106
H                23.2719552553       15.0639713359       17.7456095215
H                23.3693085265       15.4410193505       19.4647937372
H                22.0466500347       16.0916073589       18.4999886222
N                21.3751996202       19.1994642403       21.0857896633
C                20.4599501496       19.0034170044       22.1998204089
C                19.0145272766       19.0361550184       21.6947008495
O                18.1889631096       18.1877493980       22.0236273101
C                20.7569750822       20.0590870039       23.2673293159
C                19.8884053027       19.9651946325       24.5330080119
C                20.6623030175       20.5163605860       25.7321476815
C                18.5730143195       20.7277605120       24.3714900849
H                22.0685296802       19.9368873955       21.1621220596
H                20.6153811155       17.9994500616       22.6176164747
H                21.8048659457       19.9170028383       23.5381805808
H                20.6514600234       21.0460752745       22.8130167039
H                19.6603629894       18.9097093677       24.7196672431
H                20.0484782768       20.4714067610       26.6279409500
H                21.5626580832       19.9331195045       25.9072682795
H                20.9425940493       21.5507812540       25.5516030018
H                18.0081012712       20.7125782251       25.3008703841
H                18.7643400220       21.7629845518       24.0969370636
H                17.9567690589       20.2800312148       23.5971870979
N                18.7244014769       20.0605600481       20.8934638091
C                17.3967616028       20.2657012176       20.3550641805
C                16.9804866000       19.0726057268       19.4942880625
O                15.8990395108       18.5201202918       19.6745852484
C                17.3455119597       21.5618183289       19.5585112432
H                19.4147260487       20.7732903347       20.6817203307
H                16.6731052032       20.3077531775       21.1822506637
H                16.3470461075       21.7203515705       19.1619846283
H                17.6136436694       22.3968142922       20.1993930347
H                18.0549427606       21.5253733047       18.7357491203
N                17.8423637785       18.7028429643       18.5490592293
C                17.5746204991       17.5554556606       17.6979066985
C                17.2479767414       16.3435739343       18.5781382104
O                16.2477287273       15.6590363651       18.3850912635
C                18.7905282545       17.2670346111       16.8085151116
C                18.7905777788       15.8634646153       16.1986129716
C                17.6223440910       15.5912317527       15.2482711298
C                17.5864916798       14.1054676801       14.8988229311
N                16.4868716436       13.7792881838       13.9504371170
H                18.6867234696       19.2391443867       18.3656844796
H                16.6812121677       17.7566981248       17.0923908102
H                18.8364300278       18.0235087372       16.0251891303
H                19.6811508371       17.3754798848       17.4291622453
H                19.7314350464       15.7256268301       15.6650714657
H                18.7571840061       15.1308999563       17.0055785163
H                16.6888715682       15.8620867569       15.7439307206
H                17.7382442846       16.1970889470       14.3500076258
H                18.5386553279       13.7979946952       14.4680896879
H                17.4219016694       13.5345724869       15.8136281377
H                15.9382993238       12.9053311770       14.3335147011
H                15.8297036038       14.5618735305       13.8783052026
H                16.8396788754       13.5661804211       13.0144249788
N                24.5140407340       15.7901000395       31.4767640734
C                24.8810944863       15.9945415782       30.0814769759
C                26.3841229998       16.2780128360       30.0202450799
O                26.8247939753       17.2726737225       30.5801835085
C                24.0893262117       17.2254660167       29.5956325355
C                24.0974188867       17.4885339072       28.1145218567
C                25.0443109073       18.3149919337       27.5254039151
C                23.0785342975       16.9782459670       27.3186639559
C                24.9596392715       18.6436900575       26.1850683129
C                22.9850838064       17.2914499102       25.9796074860
C                23.9212470842       18.1466334222       25.4073402672
O                23.7668278224       18.4783384608       24.0967051584
H                24.3282263912       16.6339843021       32.0021845895
H                24.6117779974       15.0973352787       29.5194518922
H                23.0537878767       17.0878744129       29.9123439441
H                24.5046204781       18.0962962447       30.1077565833
H                25.8423907799       18.7366414101       28.1173657088
H                22.3270424923       16.3424600397       27.7570215401
H                25.6856746114       19.3123646771       25.7476009385
H                22.1753433497       16.9120074076       25.3758282756
H                24.4709360358       19.0793602639       23.8187758286
N                29.9125438369       16.6634233571       27.5888604535
C                30.5018277811       16.9051811218       26.2910901828
C                31.9939274178       16.5985121547       26.3930981549
O                32.6407591600       16.9370092468       27.3795991240
C                30.3268532548       18.3713325436       25.8384764759
C                30.7471926617       18.5108498293       24.3777044792
C                28.8807193043       18.8181936579       26.0318486942
H                30.3869595495       17.0662912207       28.3894219991
H                30.0161455752       16.2371015756       25.5738457037
H                30.9739769493       18.9926677868       26.4676385503
H                30.6266624175       19.5402989488       24.0544832303
H                31.7886532175       18.2297192379       24.2379397103
H                30.1334758756       17.8683144018       23.7503530400
H                28.7762715090       19.8577244182       25.7357211363
H                28.2164231322       18.2037182725       25.4299461068
H                28.5833858579       18.7197065049       27.0730705926
H                32.2261087742       30.3355924705       29.6992716000
H                37.3734520394       23.6905546306       23.3525805030
H                40.7620861985       33.5100744675       28.1687245780
H                42.0249593337       33.8107881457       24.8741995745
H                38.7987344688       24.3136862964       12.4967897606
H                31.9975424484       15.0693739980       20.7091002826
H                28.9196224908       14.8587894748       22.1625794425
H                27.4358033515       12.2397488296       24.7312291500
H                31.5651775958       17.9591249376       13.0107493349
H                17.8566526149       16.0940691538       19.3313055527
H                23.7658100703       15.2918809329       31.5206798533
H                26.9909109145       15.6542711068       29.5275436674
H                29.0777403013       16.9992409086       27.6070161441
H                32.4570878516       16.1156483724       25.6499124578
