534
Properties=species:S:1:pos:R:3 pbc="F F F"
N      27.82400000      32.95900000      45.78000000 
C      27.16600000      33.90600000      45.00000000 
C      26.49200000      33.13000000      43.88800000 
O      27.07900000      32.16700000      43.28400000 
C      28.14000000      34.88300000      44.34400000 
O      27.39700000      35.67100000      43.43700000 
C      29.36400000      34.26100000      43.67000000 
H      28.19600000      32.08400000      45.42900000 
H      26.46400000      34.40800000      45.54600000 
H      28.47000000      35.53800000      45.19500000 
H      26.85900000      36.27200000      43.78900000 
H      30.05800000      34.98300000      43.45900000 
H      29.78200000      33.50600000      44.39800000 
H      29.05000000      33.74700000      42.82400000 
N      25.29100000      33.46300000      43.52900000 
C      24.55700000      33.05900000      42.45200000 
C      24.95700000      33.89000000      41.23200000 
O      25.82400000      33.43600000      40.43800000 
C      23.06400000      33.16700000      42.68700000 
O      22.85400000      34.42300000      43.24800000 
H      24.80400000      34.28600000      44.08800000 
H      24.83600000      32.03800000      42.25200000 
H      22.50200000      32.96400000      41.80100000 
H      22.79600000      32.37000000      43.40000000 
H      21.89000000      34.61900000      43.40200000 
N      23.73700000      11.27400000      40.52900000 
C      23.03200000      11.94000000      41.68300000 
C      23.81800000      11.85400000      42.94600000 
O      24.25600000      10.79100000      43.31700000 
C      21.65700000      11.24400000      41.80400000 
C      20.77500000      11.81700000      42.87500000 
S      19.26900000      10.84400000      43.20800000 
C      18.70400000      10.48000000      41.43100000 
H      23.91900000      10.33000000      40.71400000 
H      22.88200000      12.96000000      41.39500000 
H      21.16200000      11.28500000      40.84800000 
H      21.87100000      10.18200000      42.06500000 
H      21.28500000      11.89200000      43.84800000 
H      20.48800000      12.87500000      42.60300000 
H      17.69800000      10.13800000      41.51600000 
H      18.74700000      11.37500000      40.84600000 
H      19.32100000       9.69900000      41.01700000 
N      23.90800000      13.51800000      46.91600000 
C      23.41500000      14.37000000      47.91300000 
C      23.70900000      13.89000000      49.28900000 
O      23.93200000      12.63300000      49.49400000 
C      21.90200000      14.65200000      47.73900000 
C      20.88900000      14.00300000      48.64400000 
C      20.58100000      14.62800000      49.81700000 
C      20.29200000      12.79800000      48.20800000 
C      19.59400000      14.00500000      50.64100000 
C      19.28900000      12.25300000      49.08400000 
C      19.00900000      12.84100000      50.30300000 
O      18.01400000      12.35400000      51.14100000 
H      24.27500000      12.59300000      47.21200000 
H      23.88000000      15.32700000      47.82800000 
H      21.75000000      15.72700000      47.85700000 
H      21.65000000      14.46000000      46.70200000 
H      21.04100000      15.50700000      50.11600000 
H      20.49900000      12.35200000      47.35600000 
H      19.33400000      14.51400000      51.60500000 
H      18.81200000      11.35100000      48.79900000 
H      17.66200000      11.53300000      50.83500000 
N      23.62800000      14.79300000      50.21600000 
C      23.77100000      14.54700000      51.65900000 
C      23.05200000      15.58200000      52.38800000 
O      22.63100000      16.59900000      51.81300000 
C      25.26000000      14.55700000      52.02500000 
C      25.83000000      15.90900000      51.71200000 
C      27.28900000      15.91300000      51.30700000 
O      27.93700000      17.05700000      51.47300000 
O      27.84800000      14.94100000      50.84200000 
H      23.42100000      15.74600000      49.95400000 
H      23.38300000      13.59400000      51.84800000 
H      25.40000000      14.27900000      53.01100000 
H      25.80000000      13.81400000      51.37600000 
H      25.33800000      16.37300000      50.89700000 
H      25.71800000      16.59800000      52.60200000 
N      22.96000000      15.40500000      53.64100000 
C      22.25700000      16.22200000      54.53800000 
C      23.04200000      16.22700000      55.82500000 
O      23.42800000      15.14600000      56.26800000 
C      20.84100000      15.78600000      54.78800000 
C      19.94700000      16.83800000      55.47300000 
C      18.88300000      16.15300000      56.26700000 
C      17.85600000      17.17200000      56.66600000 
N      16.94300000      16.64800000      57.77600000 
H      23.31900000      14.55900000      54.07000000 
H      22.27100000      17.28900000      54.12800000 
H      20.43800000      15.51900000      53.79300000 
H      20.87400000      14.88600000      55.33900000 
H      20.50700000      17.45000000      56.01500000 
H      19.50200000      17.44400000      54.66000000 
H      18.38100000      15.39700000      55.71300000 
H      19.32600000      15.74500000      57.14800000 
H      18.33000000      18.10200000      57.08100000 
H      17.20800000      17.48700000      55.86800000 
H      16.25500000      17.32800000      58.01400000 
H      16.52600000      15.79200000      57.46000000 
H      17.52500000      16.45000000      58.58800000 
N      20.94800000      23.41800000      59.72900000 
C      20.94800000      22.35400000      58.79600000 
C      21.47900000      22.80200000      57.45900000 
O      21.43900000      23.93400000      57.14600000 
C      19.52400000      21.79500000      58.54500000 
C      18.62600000      22.78400000      57.99300000 
C      17.21300000      22.22700000      57.86000000 
O      16.77000000      21.90400000      56.79100000 
N      16.57800000      22.09200000      59.03700000 
H      20.84400000      24.38800000      59.41400000 
H      21.55200000      21.56200000      59.19200000 
H      19.60700000      20.96400000      57.92700000 
H      19.17800000      21.40200000      59.51500000 
H      18.54800000      23.65800000      58.66000000 
H      18.90800000      23.13800000      57.06100000 
H      16.89400000      22.36100000      59.84100000 
H      15.64700000      21.67400000      59.01200000 
N      21.99900000      21.79700000      56.74700000 
C      22.57400000      22.00100000      55.47200000 
C      22.16400000      20.76600000      54.58700000 
O      22.27400000      19.71500000      54.98900000 
C      24.07100000      21.96600000      55.55100000 
C      24.60900000      23.08000000      56.48000000 
C      24.77700000      22.00900000      54.20900000 
C      26.02300000      22.99600000      56.86900000 
H      22.17200000      20.90400000      57.21900000 
H      22.27500000      22.88100000      55.03100000 
H      24.37200000      21.03000000      56.07200000 
H      24.38400000      24.04700000      55.90000000 
H      23.95600000      23.13600000      57.34900000 
H      25.85300000      21.99500000      54.29800000 
H      24.50300000      21.15200000      53.61100000 
H      24.49100000      22.88500000      53.69700000 
H      26.26100000      23.80600000      57.58900000 
H      26.20500000      22.09300000      57.35400000 
H      26.67600000      23.10300000      56.06700000 
N      21.66900000      21.12400000      53.44700000 
C      21.17600000      20.11900000      52.44500000 
C      22.03700000      20.40400000      51.21400000 
O      22.03200000      21.58400000      50.69900000 
C      19.72300000      20.18400000      52.18800000 
C      19.35300000      18.94500000      51.38000000 
C      19.00400000      20.26600000      53.45100000 
H      21.46500000      22.11200000      53.16200000 
H      21.51500000      19.16800000      52.84500000 
H      19.54900000      21.04500000      51.56000000 
H      18.30700000      18.89800000      51.20800000 
H      19.85700000      18.90300000      50.39700000 
H      19.63200000      18.04900000      51.92700000 
H      17.88400000      20.19700000      53.22900000 
H      19.21900000      19.48100000      54.11200000 
H      19.13900000      21.18900000      53.94100000 
N      22.73600000      19.43400000      50.70400000 
C      23.63500000      19.62200000      49.56200000 
C      23.22800000      18.53200000      48.55800000 
O      23.41000000      17.36000000      48.83600000 
C      25.06900000      19.38700000      50.04300000 
C      26.18900000      19.82900000      49.10000000 
O      27.22300000      20.10200000      49.56100000 
N      25.91600000      19.86700000      47.81100000 
H      22.72100000      18.51700000      51.14000000 
H      23.47200000      20.55700000      49.16000000 
H      25.19100000      19.95900000      50.91800000 
H      25.21800000      18.37100000      50.27700000 
H      26.61100000      20.24300000      47.22500000 
H      25.09700000      19.66100000      47.38800000 
N      22.70700000      18.84500000      47.40900000 
C      22.17200000      17.98500000      46.46200000 
C      22.64300000      18.45200000      45.09800000 
O      22.65100000      19.52800000      44.78600000 
C      20.67200000      17.92600000      46.66600000 
C      19.95200000      17.06500000      45.59700000 
C      19.94000000      17.38200000      44.34900000 
C      19.37700000      15.84900000      46.01400000 
C      19.31400000      16.55300000      43.39700000 
C      18.71400000      15.04700000      45.08000000 
C      18.67500000      15.35600000      43.75600000 
H      22.48500000      19.96700000      47.26600000 
H      22.64000000      17.05400000      46.69000000 
H      20.50600000      17.50600000      47.63200000 
H      20.28100000      18.92500000      46.56700000 
H      20.34100000      18.29400000      43.98300000 
H      19.37500000      15.57900000      47.07500000 
H      19.32500000      16.82600000      42.34600000 
H      18.26600000      14.15500000      45.43300000 
H      18.28300000      14.77500000      43.10000000 
N      22.96900000      17.49300000      44.28400000 
C      23.46500000      17.81800000      42.95900000 
C      23.16400000      16.59800000      42.00100000 
O      23.23300000      15.50500000      42.35300000 
C      24.99500000      17.95500000      43.04400000 
C      25.68800000      18.24900000      41.72500000 
C      27.15000000      18.81800000      42.03500000 
C      27.97200000      17.74400000      42.69400000 
N      29.28900000      18.43900000      43.15200000 
H      23.10100000      16.48400000      44.57000000 
H      23.03000000      18.63900000      42.58300000 
H      25.15000000      18.81500000      43.74000000 
H      25.40900000      17.06000000      43.53100000 
H      25.75100000      17.34400000      41.13700000 
H      25.15900000      18.97500000      41.17800000 
H      27.58800000      19.04000000      41.02500000 
H      27.04000000      19.68800000      42.56200000 
H      27.50000000      17.43900000      43.66000000 
H      28.22700000      16.93800000      42.10700000 
H      29.82000000      17.82100000      43.59700000 
H      29.75000000      18.76800000      42.34700000 
H      29.08500000      19.20900000      43.73100000 
N      22.97300000      16.97300000      40.78400000 
C      22.92900000      15.99700000      39.68100000 
C      23.63800000      16.47600000      38.46900000 
O      23.71000000      17.67600000      38.23800000 
C      21.48000000      15.58500000      39.32800000 
C      20.99200000      14.45100000      40.21800000 
C      19.70100000      13.90600000      39.76700000 
O      19.61400000      12.95600000      39.08900000 
N      18.63300000      14.61400000      40.11000000 
H      22.88700000      17.92400000      40.47100000 
H      23.41900000      15.10600000      40.05800000 
H      20.85500000      16.46700000      39.35800000 
H      21.48400000      15.21300000      38.29100000 
H      21.69800000      13.68800000      40.18200000 
H      20.92300000      14.82500000      41.23200000 
H      18.65700000      15.45100000      40.64300000 
H      17.71800000      14.36900000      39.76300000 
N      22.25300000      20.30700000      37.91000000 
C      21.59700000      21.17600000      38.85100000 
C      22.19100000      20.95300000      40.23900000 
O      22.65700000      19.80100000      40.56100000 
C      20.07100000      20.93600000      38.90700000 
C      19.63100000      19.49400000      39.08900000 
C      18.13900000      19.48800000      39.05400000 
N      17.51500000      18.23300000      38.73800000 
C      16.97600000      17.36100000      39.62500000 
N      16.02500000      16.38800000      39.20800000 
N      17.30700000      17.39200000      40.87200000 
H      22.56400000      19.37000000      38.26400000 
H      21.79000000      22.15100000      38.60100000 
H      19.68500000      21.58600000      39.66200000 
H      19.74400000      21.28500000      37.91600000 
H      19.99100000      18.91400000      38.30900000 
H      20.01300000      19.08500000      40.02600000 
H      17.74300000      19.84400000      40.03100000 
H      17.75400000      20.19300000      38.37000000 
H      17.23600000      18.10200000      37.77500000 
H      15.77800000      16.44500000      38.24700000 
H      15.70400000      15.82900000      39.80900000 
H      18.03100000      18.05500000      41.21600000 
H      16.83400000      16.82600000      41.55300000 
N      22.26400000      21.93800000      41.03600000 
C      22.85400000      21.94900000      42.35900000 
C      21.93900000      22.68000000      43.25100000 
O      21.53100000      23.79400000      42.91700000 
C      24.29700000      22.50100000      42.31500000 
C      25.06800000      22.03100000      43.47400000 
C      26.53700000      22.36800000      43.45400000 
O      27.36700000      21.79800000      44.22900000 
N      26.91900000      23.32300000      42.51400000 
H      21.92400000      22.86200000      40.72200000 
H      22.90400000      20.87200000      42.64400000 
H      24.74300000      22.13100000      41.38400000 
H      24.22900000      23.56200000      42.26000000 
H      24.70500000      22.42400000      44.41200000 
H      25.02700000      20.94000000      43.58800000 
H      26.34400000      23.71300000      41.96000000 
H      27.92600000      23.52500000      42.55600000 
N      21.69600000      22.06500000      44.38400000 
C      20.66900000      22.53000000      45.30200000 
C      21.31200000      22.71600000      46.59000000 
O      21.92600000      21.66700000      47.19200000 
C      19.63400000      21.36800000      45.44100000 
C      18.66000000      21.59600000      46.54400000 
C      18.88100000      21.11000000      44.12300000 
H      22.05300000      21.14400000      44.56100000 
H      20.20900000      23.38300000      45.01700000 
H      20.23500000      20.47900000      45.70500000 
H      17.95400000      20.78700000      46.63900000 
H      19.12600000      21.69600000      47.52100000 
H      18.06800000      22.51200000      46.37200000 
H      18.41000000      20.12800000      44.19300000 
H      18.19100000      21.86400000      43.94600000 
H      19.62800000      21.06900000      43.30200000 
N      21.31500000      23.88800000      47.18700000 
C      21.84100000      24.16600000      48.46200000 
C      20.75600000      24.84600000      49.28800000 
O      20.14100000      25.68500000      48.88300000 
C      23.01600000      25.08800000      48.42200000 
C      24.28300000      24.41600000      47.95600000 
C      24.98800000      23.60900000      48.82000000 
C      24.75900000      24.65600000      46.68400000 
C      26.08100000      22.96800000      48.48100000 
C      25.95700000      23.95400000      46.24800000 
C      26.59000000      23.11500000      47.14800000 
O      27.67400000      22.39500000      46.79600000 
H      20.91200000      24.66100000      46.65800000 
H      22.17600000      23.21100000      48.93800000 
H      22.77000000      25.93600000      47.78800000 
H      23.18600000      25.55000000      49.41200000 
H      24.57900000      23.46300000      49.82800000 
H      24.30300000      25.26000000      46.02200000 
H      26.62300000      22.30200000      49.10200000 
H      26.32500000      24.12800000      45.32900000 
H      27.72400000      22.21700000      45.82900000 
N      20.70100000      24.30500000      50.50800000 
C      19.82400000      24.95700000      51.54000000 
C      20.49900000      24.91900000      52.83800000 
O      20.99800000      23.75400000      53.23900000 
C      18.44800000      24.24300000      51.65400000 
C      17.54500000      24.79800000      52.66900000 
C      17.17400000      26.23900000      52.34500000 
C      16.25900000      23.95200000      52.79700000 
H      21.10800000      23.50100000      50.83600000 
H      19.68000000      25.97500000      51.25500000 
H      17.99800000      24.30300000      50.66400000 
H      18.67900000      23.19500000      51.86000000 
H      18.01700000      24.79700000      53.66600000 
H      16.41300000      26.62900000      53.07500000 
H      18.01500000      26.91200000      52.40800000 
H      16.71800000      26.31100000      51.40700000 
H      15.58600000      24.35900000      53.48100000 
H      15.75800000      23.97500000      51.79400000 
H      16.51800000      22.93800000      52.99900000 
N      20.13500000      29.76700000      50.28600000 
C      19.98400000      28.62000000      49.26200000 
C      20.45400000      29.16100000      47.96000000 
O      20.37400000      30.40100000      47.68600000 
C      18.56100000      28.32600000      49.11600000 
H      20.11800000      30.63500000      49.90300000 
H      20.53700000      27.81300000      49.56500000 
H      18.36400000      27.54300000      48.37100000 
H      18.14200000      27.91500000      50.11400000 
H      17.93700000      29.19000000      48.91200000 
N      20.82600000      28.25400000      47.07800000 
C      20.90200000      28.58600000      45.68300000 
C      20.38800000      27.29700000      44.87700000 
O      20.45000000      26.21700000      45.43500000 
C      22.27100000      28.92700000      45.14300000 
C      22.81200000      30.26300000      45.85300000 
C      23.30300000      27.85200000      45.35300000 
H      20.79600000      27.29700000      47.34800000 
H      20.25300000      29.35000000      45.44200000 
H      22.18900000      29.13800000      44.08400000 
H      23.69400000      30.52600000      45.37100000 
H      22.05500000      30.99500000      45.70700000 
H      22.95100000      30.04700000      46.86300000 
H      24.30100000      28.16700000      45.00000000 
H      23.38300000      27.56400000      46.36800000 
H      23.04900000      26.93400000      44.77100000 
N      20.01400000      27.48000000      43.68100000 
C      19.61800000      26.54800000      42.71400000 
C      20.31700000      26.72500000      41.48400000 
O      20.03000000      27.82800000      40.77100000 
C      18.09500000      26.46700000      42.61900000 
C      17.67700000      25.29700000      41.80000000 
C      17.44000000      27.79300000      42.09700000 
C      17.55100000      24.04000000      42.58700000 
H      19.98500000      28.53600000      43.33500000 
H      19.94400000      25.55300000      43.17000000 
H      17.69500000      26.30200000      43.60400000 
H      16.74200000      25.48600000      41.24500000 
H      18.43300000      25.09000000      40.99200000 
H      16.38200000      27.69400000      42.21100000 
H      17.81200000      28.60800000      42.67500000 
H      17.70400000      27.91100000      41.08400000 
H      17.34300000      23.13000000      41.98700000 
H      18.37100000      23.86900000      43.18700000 
H      16.67600000      24.12700000      43.26200000 
N      21.32300000      25.95300000      41.16700000 
C      22.15400000      26.24500000      40.06100000 
C      21.54800000      25.86100000      38.77900000 
O      21.77500000      26.52200000      37.66800000 
C      23.52700000      25.53700000      40.18000000 
C      24.56800000      25.96400000      39.27700000 
C      24.73100000      27.44300000      39.15600000 
C      25.86900000      25.32600000      39.61300000 
H      21.50700000      25.14700000      41.76400000 
H      22.32100000      27.37100000      40.00800000 
H      23.85900000      25.83300000      41.22300000 
H      23.36200000      24.50000000      40.18000000 
H      24.27500000      25.56700000      38.19200000 
H      25.62800000      27.70800000      38.52700000 
H      23.91300000      27.92200000      38.67000000 
H      24.87600000      27.85800000      40.07600000 
H      26.63900000      25.44900000      38.87500000 
H      26.23000000      25.71400000      40.55400000 
H      25.76500000      24.22100000      39.73800000 
N      20.66400000      24.80300000      38.73500000 
C      20.15800000      24.30700000      37.53000000 
C      19.17900000      25.20100000      36.85000000 
O      19.04300000      25.27200000      35.69400000 
H      20.48300000      24.36900000      39.61000000 
H      20.95400000      24.15500000      36.81300000 
H      19.72700000      23.36700000      37.72400000 
N      12.22700000      25.07100000      46.89400000 
C      13.56200000      24.96600000      47.32900000 
C      14.12200000      26.23200000      47.82400000 
O      14.82300000      26.37000000      48.74200000 
C      14.37600000      24.43300000      46.08200000 
C      15.79700000      24.54700000      46.33500000 
C      13.98600000      23.01200000      45.74900000 
H      11.91600000      25.15200000      46.00200000 
H      13.68500000      24.31100000      48.10200000 
H      14.09500000      25.11200000      45.21800000 
H      16.38400000      24.14600000      45.54000000 
H      16.17100000      25.61300000      46.45800000 
H      16.10400000      24.06000000      47.22700000 
H      14.57500000      22.67200000      45.08500000 
H      13.96700000      22.45000000      46.69800000 
H      12.92100000      23.00400000      45.36000000 
N      11.31700000      19.48200000      50.15900000 
C      12.38500000      20.27100000      49.42000000 
C      13.05800000      19.32200000      48.49600000 
O      12.75500000      19.38200000      47.19100000 
C      13.33300000      20.94400000      50.36400000 
C      14.08000000      21.99500000      49.76700000 
S      15.54100000      21.40800000      48.71000000 
C      16.80500000      21.18300000      50.03300000 
H      11.58300000      19.00300000      50.88400000 
H      11.88100000      21.00600000      48.86100000 
H      12.66900000      21.43100000      51.18200000 
H      13.94600000      20.22600000      50.92200000 
H      13.51300000      22.60100000      49.09100000 
H      14.55800000      22.70600000      50.46100000 
H      17.65000000      20.67200000      49.60300000 
H      17.10900000      22.12700000      50.38700000 
H      16.39000000      20.55800000      50.83600000 
N      13.86200000      18.43000000      48.89500000 
C      14.57000000      17.59000000      47.94200000 
C      13.55600000      16.74600000      47.18900000 
O      13.80100000      16.46900000      46.06700000 
C      15.64400000      16.70400000      48.70900000 
C      16.78100000      17.58800000      49.16700000 
C      15.09100000      15.83100000      49.81300000 
H      14.15100000      18.42200000      49.90300000 
H      15.05100000      18.17000000      47.27700000 
H      15.97600000      16.02600000      47.92300000 
H      17.51600000      16.97500000      49.62300000 
H      17.25000000      18.07300000      48.33600000 
H      16.43600000      18.30800000      49.84700000 
H      15.85300000      15.26500000      50.22900000 
H      14.71600000      16.55900000      50.64800000 
H      14.24900000      15.26500000      49.52800000 
N      12.56900000      16.32300000      47.91000000 
C      11.69900000      15.31100000      47.30700000 
C      10.97700000      15.90300000      46.10100000 
O      10.66800000      15.09000000      45.09200000 
C      10.66000000      14.80400000      48.37200000 
C       9.83200000      13.72000000      47.83900000 
C       8.63300000      14.06200000      46.99200000 
O       8.13600000      15.13200000      47.11900000 
O       8.15300000      13.15000000      46.19500000 
H      12.38100000      16.54300000      48.83000000 
H      12.22500000      14.45200000      46.94700000 
H      11.21300000      14.52000000      49.20700000 
H       9.97600000      15.65500000      48.60000000 
H      10.44000000      12.95100000      47.25000000 
H       9.40400000      13.08500000      48.71000000 
N      11.84300000      18.07000000      43.92200000 
C      12.79100000      18.14400000      42.70500000 
C      13.10800000      16.73300000      42.26500000 
O      13.05300000      16.50000000      41.06400000 
C      14.00100000      18.94000000      43.06600000 
C      14.27200000      20.02500000      41.91200000 
C      13.65000000      21.34900000      42.38000000 
C      15.69500000      20.16500000      41.78000000 
H      12.23200000      18.35700000      44.81000000 
H      12.17000000      18.58700000      41.92300000 
H      13.95100000      19.35700000      43.93100000 
H      14.85900000      18.25600000      43.06100000 
H      13.79900000      19.68800000      41.05300000 
H      13.58800000      22.05600000      41.54800000 
H      12.62000000      21.18800000      42.73800000 
H      14.14900000      21.71400000      43.17800000 
H      15.88700000      20.95000000      40.95700000 
H      16.20600000      20.57700000      42.63500000 
H      16.15700000      19.31600000      41.38800000 
N      13.40700000      15.87300000      43.15900000 
C      13.92800000      14.49600000      42.83400000 
C      12.70400000      13.60200000      42.61200000 
O      12.57900000      12.53600000      43.23300000 
C      15.02100000      13.97600000      43.72800000 
C      15.71600000      12.88200000      43.02700000 
C      14.52300000      13.62900000      45.03700000 
C      16.13000000      13.09500000      41.58900000 
H      13.42300000      16.09200000      44.17600000 
H      14.32200000      14.67600000      41.78100000 
H      15.72400000      14.81500000      43.76300000 
H      16.60800000      12.62400000      43.60900000 
H      15.07400000      11.94700000      43.05000000 
H      15.48600000      13.53600000      45.74900000 
H      13.91700000      14.32600000      45.51600000 
H      14.10600000      12.63200000      45.06800000 
H      16.89900000      12.45800000      41.25400000 
H      15.33500000      13.05100000      40.91500000 
H      16.53700000      14.12700000      41.51400000 
N      28.22700000      22.68700000      35.20400000 
C      28.68200000      22.39700000      36.45600000 
C      30.22100000      22.47000000      36.45500000 
O      30.74800000      23.56400000      36.51200000 
C      28.10900000      21.07400000      36.99200000 
C      26.58900000      21.09200000      36.95000000 
C      28.56400000      20.74300000      38.37900000 
C      25.95600000      22.12000000      37.84100000 
H      28.26600000      21.96700000      34.49500000 
H      28.38200000      23.16100000      37.13600000 
H      28.43200000      20.27000000      36.34800000 
H      26.30500000      21.27600000      35.95500000 
H      26.23400000      20.12600000      37.19700000 
H      28.07500000      19.93200000      38.82000000 
H      29.66400000      20.51300000      38.43400000 
H      28.46100000      21.59800000      39.04300000 
H      24.86200000      22.09100000      37.74900000 
H      26.20900000      21.97300000      38.87100000 
H      26.27200000      23.14700000      37.54300000 
H      28.55632769      33.32999687      46.14885971 
H      24.53194579      34.78105601      41.07278915 
H      23.22195507      11.32465546      39.79268299 
H      23.98400159      12.67738639      43.48865857 
H      23.25319149      13.33519186      46.32624835 
H      23.23365834      17.09109297      56.29041425 
H      20.26839164      23.30907804      60.30888662 
H      24.05633423      15.81886758      37.84196456 
H      21.69753822      20.13365561      37.22340410 
H      20.57163623      25.75077831      53.38833519 
H      19.46161486      29.72834881      50.88186788 
H      18.58271367      25.79341442      37.39174511 
H      11.76887606      24.34025405      47.15116302 
H      13.90742250      27.09001149      47.35733869 
H      10.68329001      20.04478249      50.46179949 
H      10.74875189      16.87643946      46.08315561 
H      11.13048822      18.60133466      43.78054172 
H      11.99605746      13.87613268      41.96110167 
H      27.35839481      22.91882298      35.24622714 
H      30.76138152      21.62988190      36.40820912 
