337
Properties=species:S:1:pos:R:3 pbc="F F F"
N      21.96600000      22.09400000      44.44700000 
C      20.85400000      22.67500000      45.15200000 
C      21.83000000      23.05200000      46.71800000 
O      22.23700000      21.91600000      47.06900000 
C      19.77900000      22.07800000      45.25300000 
C      18.86000000      22.28100000      46.73400000 
C      19.07500000      21.87200000      44.12900000 
H      22.19100000      21.39400000      44.48300000 
H      20.67700000      23.87400000      44.88900000 
H      20.11400000      20.87300000      45.72000000 
H      17.89000000      21.84800000      46.53200000 
H      19.20200000      22.37800000      47.36900000 
H      18.45400000      23.61700000      46.30000000 
H      18.07300000      21.04300000      44.20300000 
H      18.60500000      22.73400000      43.76100000 
H      19.62300000      21.38100000      43.28200000 
N      20.89500000      24.38400000      50.33200000 
C      19.85000000      24.88000000      51.86000000 
C      20.66500000      25.24300000      52.70300000 
O      21.26500000      23.72700000      53.49700000 
C      18.66400000      24.43300000      51.66700000 
C      17.76700000      24.76500000      53.00800000 
C      16.94500000      26.13100000      52.45400000 
C      16.40600000      23.99300000      53.47100000 
H      21.18500000      23.63700000      50.88600000 
H      19.74300000      26.06000000      51.34400000 
H      18.12600000      24.23000000      50.94500000 
H      18.82500000      23.23000000      52.19400000 
H      18.10900000      25.07700000      53.75000000 
H      16.39300000      26.64800000      53.11600000 
H      18.00900000      27.13000000      52.26500000 
H      16.59700000      26.18700000      51.51700000 
H      15.90100000      24.32100000      53.80500000 
H      15.86400000      23.74300000      52.21500000 
H      16.85300000      23.03300000      53.52700000 
N      18.32100000      32.15200000      56.91300000 
C      18.08700000      31.06100000      55.81300000 
C      18.70600000      31.68600000      54.32300000 
O      18.50400000      33.04900000      54.08300000 
C      16.60400000      30.77900000      55.55600000 
C      15.94500000      32.22600000      55.35500000 
C      16.44800000      29.73100000      54.61200000 
H      18.16700000      33.17600000      56.43200000 
H      18.60700000      30.38800000      55.98200000 
H      16.33200000      30.38300000      56.39400000 
H      14.47200000      31.56300000      55.17700000 
H      15.70500000      32.59600000      55.80500000 
H      15.88100000      32.41300000      54.19300000 
H      15.39900000      29.28500000      54.43900000 
H      16.67800000      30.10900000      53.32400000 
H      17.15400000      28.83700000      54.57900000 
N      19.90200000      30.25900000      49.94900000 
C      19.64300000      29.44300000      49.18800000 
C      20.38500000      29.79900000      48.17300000 
O      20.11600000      30.78200000      47.60700000 
C      18.49300000      28.57800000      49.17800000 
H      19.75400000      31.14500000      49.90200000 
H      20.64100000      28.23900000      49.61400000 
H      18.37400000      27.91100000      48.36400000 
H      18.10800000      28.28200000      49.97500000 
H      17.79800000      29.46700000      48.78400000 
N      20.02800000      27.97100000      43.52000000 
C      19.82400000      27.04900000      42.98400000 
C      20.26500000      27.17200000      41.65500000 
O      19.93500000      28.29600000      40.85800000 
C      18.16300000      26.72500000      42.76500000 
C      17.61200000      25.74600000      42.04800000 
C      17.29700000      28.04800000      42.54500000 
C      16.48100000      24.95000000      42.38400000 
H      20.05000000      28.92700000      43.43900000 
H      20.13200000      26.08200000      43.27800000 
H      17.91000000      26.46900000      44.03900000 
H      17.77500000      25.85800000      41.00700000 
H      18.56400000      24.67900000      42.16300000 
H      16.25800000      27.83400000      42.82300000 
H      17.70700000      28.89000000      43.13900000 
H      17.47500000      28.27500000      41.56700000 
H      16.15900000      24.11900000      41.74800000 
H      16.36700000      24.65800000      43.47300000 
H      15.63700000      25.67200000      42.26600000 
N      15.24300000      25.87300000      38.03900000 
C      13.93700000      25.26000000      37.57400000 
C      13.06700000      25.82800000      37.89400000 
O      12.82200000      27.14600000      38.77600000 
C      14.07200000      23.85400000      38.89800000 
C      15.20500000      23.19800000      38.59200000 
O      16.22600000      22.99900000      39.46600000 
O      15.26000000      22.43000000      37.42100000 
H      15.79000000      25.87500000      38.69500000 
H      14.11300000      24.71100000      36.84100000 
H      14.19900000      24.51200000      39.85400000 
H      13.23700000      23.49400000      38.78300000 
N      11.57600000      25.69500000      37.30600000 
C      10.66400000      26.59100000      37.15500000 
C       9.42300000      26.13400000      38.58000000 
O       9.65000000      26.62300000      39.42000000 
C       9.61000000      26.25800000      35.84400000 
C      10.40200000      24.92400000      35.33300000 
C      11.71700000      24.77300000      36.17200000 
H      10.76200000      27.44700000      37.44000000 
H       9.10500000      26.49500000      35.75900000 
H      10.55900000      27.06700000      35.13300000 
H       9.58000000      24.15400000      35.83500000 
H      10.44000000      24.75800000      34.43400000 
H      11.79700000      23.53800000      36.57300000 
H      12.53500000      24.82200000      35.41900000 
N       8.78000000      25.44200000      38.19700000 
C       7.28600000      25.14900000      39.19600000 
C       7.85400000      24.70200000      40.42300000 
O       7.21200000      25.37000000      41.44400000 
C       6.46500000      23.88700000      38.52600000 
O       5.51200000      23.99300000      39.32400000 
H       8.39700000      24.83700000      37.09900000 
H       6.75800000      26.15600000      39.11800000 
H       6.15600000      24.34700000      37.50700000 
H       6.98000000      23.24400000      38.39600000 
H       4.84500000      23.03700000      39.18000000 
N       8.62800000      24.01100000      40.91000000 
C       9.13600000      23.45100000      41.94300000 
C      10.10700000      24.15200000      42.58200000 
O      10.60000000      23.89800000      43.78900000 
C       9.82500000      21.96000000      41.88600000 
O      10.50700000      22.12900000      40.84200000 
H       9.24200000      23.41700000      39.67500000 
H       8.35200000      23.39800000      42.57700000 
H       9.94800000      21.59700000      42.68200000 
H       8.68000000      21.25900000      41.37500000 
H      11.04500000      20.95400000      40.54300000 
N      10.67800000      25.47500000      41.67100000 
C      11.94500000      26.00700000      42.47700000 
C      11.38200000      27.03300000      43.54700000 
O      12.28400000      27.23800000      44.50000000 
H      10.38700000      25.48400000      41.10500000 
H      12.61400000      25.43800000      42.80600000 
H      12.12300000      26.67500000      41.68700000 
N      10.10200000      27.50300000      43.77700000 
C       9.79600000      28.56900000      44.68800000 
C       9.77400000      27.72100000      46.06700000 
O      10.00700000      28.31800000      47.00700000 
C       8.45100000      28.82700000      44.33200000 
H       9.52100000      27.17600000      42.95600000 
H      10.40400000      29.10300000      44.74100000 
H       8.03000000      29.63000000      45.26700000 
H       8.32700000      29.41100000      43.54100000 
H       7.58300000      28.03500000      44.38600000 
N       9.67100000      26.47500000      46.63300000 
C       9.61300000      25.72500000      47.31100000 
C      11.26300000      25.43200000      48.14800000 
O      11.22600000      25.42400000      49.00800000 
C       9.10300000      24.22300000      47.20000000 
C       7.37300000      24.48600000      47.44300000 
C       6.68500000      24.71300000      46.00000000 
N       5.44100000      24.96700000      46.27600000 
C       4.39200000      24.99600000      45.21100000 
N       3.10600000      25.08300000      45.17200000 
N       4.91500000      25.20700000      44.05700000 
H       9.48100000      25.80700000      45.16300000 
H       9.13500000      26.33100000      48.21400000 
H       9.24900000      23.84700000      46.56300000 
H       9.24700000      23.73400000      48.21500000 
H       7.04300000      23.42200000      47.49600000 
H       7.10000000      24.95500000      48.23200000 
H       7.11800000      26.12400000      45.95600000 
H       7.05700000      24.43900000      45.32300000 
H       4.92200000      24.85300000      47.19700000 
H       2.75800000      24.94000000      46.62400000 
H       2.53300000      25.10300000      44.94300000 
H       5.73900000      25.18800000      43.75600000 
H       4.10600000      25.24800000      43.24300000 
N      12.03100000      25.45300000      47.28900000 
C      13.52200000      25.29300000      47.50500000 
C      14.18800000      26.90900000      47.94000000 
O      14.69100000      26.68900000      48.85400000 
C      14.19800000      24.91100000      46.18600000 
C      15.79900000      24.80800000      46.41500000 
C      13.65400000      23.51400000      45.86600000 
H      11.85600000      25.60900000      45.92500000 
H      13.53500000      24.66800000      48.25800000 
H      14.16100000      25.42300000      45.43800000 
H      16.36000000      24.40500000      45.74900000 
H      16.20400000      25.95000000      46.65900000 
H      16.05100000      24.32200000      47.52900000 
H      14.52500000      22.99900000      45.04100000 
H      14.04600000      22.64800000      46.78300000 
H      12.90800000      23.39600000      45.60500000 
N      13.60700000      27.62800000      47.17400000 
C      14.00500000      29.17500000      47.71400000 
C      13.52600000      29.33200000      48.99600000 
O      14.34800000      30.07300000      49.94500000 
C      13.78100000      30.23500000      46.72500000 
C      14.01900000      31.58900000      47.01900000 
C      14.53600000      29.93300000      45.40500000 
H      13.22200000      27.74600000      46.52000000 
H      15.34600000      29.09300000      47.77300000 
H      12.66700000      30.06900000      46.47300000 
H      13.77500000      32.28700000      46.43900000 
H      13.34600000      31.84800000      48.12300000 
H      15.04400000      31.76100000      47.43800000 
H      14.15500000      30.75500000      44.55200000 
H      15.55900000      30.11200000      45.48400000 
H      14.35000000      28.98300000      44.89600000 
N      12.61800000      28.99700000      49.21200000 
C      11.55000000      29.14400000      50.72200000 
C      12.36700000      28.33200000      51.58100000 
O      12.79700000      28.72600000      52.97000000 
C      10.27900000      29.34600000      50.49600000 
O       9.84100000      30.06500000      49.32500000 
C       9.73200000      30.00300000      51.89700000 
H      11.88400000      28.52800000      48.74600000 
H      12.15800000      30.27800000      51.02700000 
H       9.89300000      28.08800000      50.31200000 
H       9.88500000      29.75400000      48.83100000 
H       8.44600000      29.72400000      51.69600000 
H       9.84200000      29.05900000      52.72900000 
H       9.87100000      30.54300000      51.99100000 
N      12.16500000      27.12500000      51.43800000 
C      12.97300000      25.87900000      52.57800000 
C      11.73400000      25.57400000      53.41300000 
O      11.65400000      25.91000000      54.36100000 
H      11.86300000      26.58300000      50.55000000 
H      13.19000000      25.09900000      51.67900000 
H      13.53100000      26.30200000      52.81300000 
N      11.01800000      24.34700000      53.09500000 
C      10.08700000      23.77100000      53.80600000 
C      10.17000000      22.21600000      54.03300000 
O      11.63400000      21.77500000      53.43700000 
C       8.72200000      23.93700000      53.18900000 
C       8.28800000      25.33300000      52.92700000 
C       6.86600000      25.78800000      52.54500000 
C       6.76300000      26.62800000      51.56900000 
N       5.33000000      27.20200000      51.46100000 
H      11.28300000      23.90200000      51.93500000 
H      10.13800000      24.15800000      54.75000000 
H       8.45500000      23.30500000      52.36400000 
H       7.91200000      23.61000000      53.99700000 
H       8.67500000      26.06900000      53.66100000 
H       8.98200000      25.64900000      51.88000000 
H       6.38100000      24.68700000      52.13900000 
H       6.35200000      25.81300000      53.48700000 
H       7.14500000      27.73200000      51.95100000 
H       6.99400000      26.57100000      50.70200000 
H       5.04300000      27.81500000      50.67800000 
H       4.60600000      26.26500000      51.15300000 
H       4.81700000      27.51700000      52.31300000 
N       9.10900000      19.61600000      52.47600000 
C       8.70600000      18.71900000      51.02600000 
C       9.87000000      19.48100000      50.38000000 
O       9.39600000      20.13900000      48.83100000 
C       7.47800000      19.22900000      50.49500000 
C       6.76100000      20.05900000      50.34300000 
O       7.14800000      21.39200000      51.26400000 
O       5.96100000      20.50900000      49.47800000 
H       8.39400000      20.47600000      52.45400000 
H       9.15100000      17.95500000      51.26900000 
H       7.36200000      18.38800000      49.63100000 
H       6.73100000      18.36700000      51.37600000 
N      11.19700000      19.49200000      50.19500000 
C      12.02500000      20.26700000      49.68000000 
C      12.87300000      19.14500000      48.98100000 
O      12.61300000      19.33900000      47.24100000 
C      13.33400000      20.61900000      50.69900000 
C      14.13600000      21.80800000      50.04200000 
S      15.43800000      21.34300000      49.05300000 
C      16.55000000      20.58600000      50.40200000 
H      11.36700000      18.87300000      51.36800000 
H      11.71900000      20.78200000      49.10000000 
H      12.47000000      21.24100000      51.42500000 
H      13.70200000      20.14000000      51.10900000 
H      13.33000000      22.56700000      49.29800000 
H      14.39400000      22.50900000      50.81100000 
H      17.63000000      20.57100000      49.84600000 
H      16.91900000      21.88200000      51.01300000 
H      16.30200000      20.16700000      50.90900000 
N      10.13700000      16.67200000      46.15700000 
C       9.48900000      17.59400000      45.08600000 
C      10.05500000      17.24600000      43.64500000 
O       9.90800000      17.10600000      42.99000000 
C       9.07900000      18.97000000      45.66000000 
C       8.07700000      19.78400000      44.57200000 
O       7.24300000      18.89700000      44.10000000 
O       8.00200000      20.59700000      44.75100000 
H      10.42700000      17.46900000      47.12800000 
H       8.53200000      16.90600000      44.90500000 
H       8.77600000      18.90100000      46.50900000 
H      10.01100000      19.53300000      45.50900000 
N      11.89800000      17.85900000      44.17300000 
C      12.47800000      17.55900000      42.75200000 
C      12.87000000      16.31000000      42.05700000 
O      12.80900000      16.20700000      41.29900000 
C      13.91100000      18.68800000      43.32000000 
C      13.67800000      19.74800000      42.49100000 
C      12.96300000      20.99300000      43.04200000 
C      15.36900000      20.57000000      42.28200000 
H      11.95900000      17.92700000      44.82100000 
H      11.91400000      18.20000000      42.00600000 
H      14.01600000      18.56600000      43.96300000 
H      14.64500000      17.93900000      42.62900000 
H      13.41200000      19.80400000      41.35800000 
H      12.85900000      21.78300000      42.73100000 
H      11.85200000      20.51200000      43.24400000 
H      13.33700000      21.05300000      44.27300000 
H      15.23700000      21.36900000      41.81300000 
H      15.68600000      20.60100000      43.30800000 
H      15.87600000      19.81500000      41.72900000 
N       9.58300000      14.97400000      40.49000000 
C       8.94000000      15.78100000      38.99900000 
C       9.46000000      16.10400000      37.98400000 
O       9.62000000      16.29400000      36.95700000 
C       8.23600000      17.33400000      39.52500000 
C       7.09000000      17.42000000      38.70900000 
C       6.53800000      18.79900000      39.51200000 
O       6.72700000      19.33300000      40.30400000 
O       5.33900000      19.31500000      38.40200000 
H       9.60700000      15.46100000      40.96000000 
H       8.13900000      15.15200000      38.60600000 
H       7.76500000      16.78800000      40.70000000 
H       8.90500000      17.75400000      39.85500000 
H       7.52300000      17.81100000      37.77600000 
H       6.42700000      16.89400000      38.59900000 
H      21.83567789      22.17635481      43.56030172 
H      21.90244379      23.99335203      47.04755765 
H      20.35074748      24.23918588      49.62998998 
H      20.86241021      26.21617897      52.82111821 
H      17.73366392      32.03251053      57.58438558 
H      19.18007862      31.07935610      53.68485218 
H      19.48337939      30.08790934      50.72712902 
H      21.16215870      29.23259188      47.89876253 
H      19.47397846      28.03683728      44.22620506 
H      20.82841781      26.45380000      41.24665073 
H      15.89865152      25.65707310      37.46150830 
H       9.40851840      21.73234761      54.46453925 
H       8.99181810      19.09009932      53.19690005 
H      13.41182152      18.50853171      49.53288721 
H       9.54727080      16.03895576      46.40494043 
H      13.23794183      15.54115310      42.57996582 
H       9.02943973      14.30737238      40.73326662 
H      10.39701540      16.45321216      37.99128055 
