 174 
 
N                50.1246740239       35.7685784076       82.1795754374
C                50.5832270529       35.2604993789       83.4579831470
C                49.4222920134       34.4917648758       84.0996859935
O                48.7060244354       34.9527430733       84.9734362811
C                51.0764707995       36.3703661407       84.3618517948
S                52.0063864857       35.7145398289       85.7876725988
H                49.3950294181       36.4737116330       82.2159132320
H                51.3957599938       34.5519699270       83.2530361570
H                51.7288012889       37.0489605389       83.8147317562
H                50.2388495779       36.9256757584       84.7819818752
H                52.4683406211       34.6151821278       85.1880565812
N                49.2757203500       33.2611627372       83.5853118791
C                48.3460416108       32.3147773798       84.1453255664
C                48.6710578714       32.0957018559       85.6213794831
O                47.8167022225       31.7792932435       86.4346297488
C                48.4823951604       30.9610454366       83.4070305706
O                48.6624131589       31.1604079836       82.0276822618
C                47.2882825625       30.0734077220       83.7355802416
H                49.7925307483       32.9612866134       82.7683348944
H                47.3117444859       32.6737563458       84.0538004556
H                49.4073805961       30.4872593343       83.7738244340
H                47.8485468238       31.6101587844       81.6924732147
H                47.5090709985       29.0345782260       83.5107828654
H                47.0657981661       30.1674962653       84.7942470373
H                46.4174269285       30.3822586477       83.1585194856
N                49.9686666716       32.2334941701       85.9345854728
C                50.4531441684       31.9105401463       87.2574115746
C                50.8506376534       30.4234779168       87.2630463643
O                51.6451135385       29.9988108543       86.4355145848
H                50.6596819439       32.3921247076       85.2140085710
H                51.3219175339       32.5307979259       87.4832015295
H                49.6456622386       32.1141987311       87.9630384149
N                50.1454636429       29.6779640613       88.1256971866
C                50.3588337950       28.2587961432       88.3580169145
C                51.7230850432       28.0747364082       89.0432769685
O                52.4256984167       29.0293959808       89.3399977590
C                50.1624976974       27.4644097520       87.0610765899
C                48.7241410821       26.9869169944       86.8104652107
C                48.4460597542       25.7125265226       87.6026920245
C                47.6803377463       28.0609081200       87.1057920579
H                49.5955324013       30.1704728236       88.8114808822
H                49.6142933081       27.9387549010       89.0945330299
H                50.4879109539       28.0989657340       86.2384078486
H                50.8178341284       26.5948258686       87.0410486981
H                48.6698543841       26.7326034488       85.7460948396
H                47.4187900320       25.3898768096       87.4595725173
H                49.1062464966       24.9206672919       87.2560704360
H                48.6128418237       25.8664525954       88.6668956251
H                46.7070022310       27.7475422988       86.7372262179
H                47.5902341938       28.2407020956       88.1741261018
H                47.9496262323       28.9985235484       86.6268490399
N                52.0212200301       26.8088028659       89.3927190669
C                53.1351033916       26.5076170697       90.2672481162
C                54.4093964358       26.0489344057       89.5489184910
O                55.4366002331       25.8502491114       90.1841866785
C                52.7589369356       25.4514049438       91.3037478977
H                51.4292980813       26.0390778491       89.1106758933
H                53.3973577301       27.4444595235       90.7732577089
H                53.6298126660       25.2485920445       91.9207587795
H                51.9466456286       25.7982976011       91.9346366201
H                52.4656820118       24.5299635783       90.8093118594
N                54.2991650424       25.8650935177       88.2326340768
C                55.3670946497       25.3448648133       87.4125924296
C                55.8394588616       26.3740873395       86.3773900041
O                57.0296736028       26.5285941276       86.1155503423
C                54.8771982831       24.0386338741       86.7482828276
C                54.4831334164       23.0735209677       87.8204269945
C                55.3315652553       22.2709764731       88.5302719846
C                53.1901447857       22.9167787269       88.4124630090
N                54.6526926568       21.6147477809       89.5167673789
C                53.3447333169       21.9968117101       89.4825815079
C                51.9211545259       23.4418662571       88.1504065434
C                52.2808718191       21.6226457057       90.2965186733
C                50.8686195746       23.0512983423       88.9513399457
C                51.0448377221       22.1646501178       90.0198134297
H                53.4033424452       25.9976256225       87.7854491378
H                56.2121548484       25.1340244391       88.0789793625
H                54.0210783748       24.2705016646       86.1105112935
H                55.6857263457       23.6326299410       86.1395071239
H                56.3845144924       22.1190630233       88.3860100883
H                55.0575112021       20.9761380973       90.1807330687
H                51.7687782716       24.1185925923       87.3188897529
H                52.4210567167       20.9297104317       91.1127384328
H                49.8765089118       23.4345539868       88.7637941973
H                50.1947833454       21.9016073004       90.6324747384
N                54.8445112757       27.0233909511       85.7790678257
C                55.0103517884       28.0245722634       84.7524573967
C                55.0955228522       29.4190084769       85.4085150534
O                55.3521113038       29.5641035609       86.5878816316
C                53.8385683909       27.9346453407       83.7588033255
C                53.3748542380       26.4893739350       83.5198432479
C                52.1646638879       26.1342892524       84.4235008552
O                52.3805795702       25.9613627827       85.6432555753
O                51.0539240680       26.0464823571       83.8655463599
H                53.8746025651       26.7098411989       85.9379820904
H                55.9767861343       27.8397610105       84.2591688890
H                53.0013395454       28.5102166729       84.1681457563
H                54.1373542519       28.3653432144       82.8012813723
H                53.0740690332       26.3610031120       82.4814722147
H                54.1800749977       25.7866709366       83.7368213912
N                54.9120221199       30.4525384840       84.5481692030
C                54.6522094897       31.8073498720       85.0303955541
C                53.8741365283       32.5396490454       83.9467078178
O                52.7598477238       33.0301140579       84.1282878783
C                55.9816080889       32.5282033010       85.3546163749
C                55.8317481987       33.6162058463       86.3646115260
C                55.4676113987       34.9204523331       86.1833611785
C                56.1174553743       33.4650542571       87.7555927058
N                55.5379509441       35.5979488866       87.3700363259
C                55.9290996456       34.7352695810       88.3532646569
C                56.4971395854       32.3756741365       88.5394575124
C                56.1579238415       34.9397264279       89.7098089737
C                56.7121861959       32.5879436926       89.8825401578
C                56.5526733647       33.8527068619       90.4605079575
H                54.5390106442       30.2202660269       83.6394142556
H                54.0492644573       31.7445369042       85.9444653150
H                56.6532490194       31.7729760557       85.7628986052
H                56.4178435415       32.9266521249       84.4405309772
H                55.1293381376       35.4161068114       85.2949070078
H                55.2316793841       36.5451883191       87.5130958309
H                56.5949193619       31.3882947019       88.1078516315
H                56.0280179066       35.9125993648       90.1614177771
H                56.9914707133       31.7571984530       90.5145548096
H                56.7392266429       33.9734907418       91.5191026408
N                54.5455433146       32.6178641820       82.7947797132
C                54.0456167648       33.1507601310       81.5523340507
C                53.8090006542       32.0102477932       80.5531164553
O                54.2884821416       30.9003711034       80.7029528057
C                55.0903029636       34.0967637096       80.9202449098
C                55.3242081576       35.3129937561       81.7530320838
C                56.3897454299       35.5688761401       82.5717414362
C                54.4295298558       36.4191013353       81.8954308485
N                56.2281043931       36.7742532270       83.1919440743
C                55.0263154333       37.3057673922       82.8286417428
C                53.1878411414       36.7350759354       81.3428049134
C                54.3826619406       38.4656321446       83.2470464887
C                52.5621756967       37.8931092012       81.7508011218
C                53.1435564731       38.7369966731       82.7069070074
H                55.3969470245       32.0754523264       82.7150280050
H                53.1076278911       33.6708329201       81.7597750728
H                56.0196213049       33.5386613211       80.8005617914
H                54.6976685563       34.3622052393       79.9381326031
H                57.2599537982       34.9688951182       82.7541060157
H                56.8333261655       37.1410965320       83.9076611590
H                52.7057850396       36.0714525652       80.6408775754
H                54.8145563042       39.1164280158       83.9913561985
H                51.5840786683       38.1431044940       81.3619223447
H                52.5847022766       39.5977332737       83.0511093860
N                53.1560455346       32.4289323733       79.4499695154
C                52.8210769745       31.5401055806       78.3452441140
C                52.5942004605       32.4633466919       77.1443262037
O                51.7503210543       33.3534652313       77.2317148548
C                51.5317108293       30.7635449952       78.6779887174
C                51.4011863976       29.4048041652       77.9937022950
C                50.0568042657       28.7665610265       78.3722588282
N                49.9105251727       28.6327218127       79.8120615017
C                50.4456949599       27.6874770764       80.5872556253
N                50.3966538586       27.8310127594       81.9039929955
N                51.0611135287       26.6222959594       80.0704516387
H                52.5100878135       33.2024638800       79.5692048316
H                53.6575424051       30.8522451167       78.2076255104
H                51.5258798848       30.6066724036       79.7585472348
H                50.6695634912       31.3899892480       78.4355252509
H                51.4409326323       29.5165586732       76.9102321580
H                52.2171236721       28.7579531548       78.3193636926
H                49.2398126787       29.4054654543       78.0321980640
H                49.9384181848       27.7924917332       77.8945825378
H                49.4886091092       29.4183519112       80.2905842700
H                49.9285384504       28.6326153034       82.2924862492
H                50.6855870987       27.0945509546       82.5756587221
H                51.0266728932       26.4342334393       79.0815428999
H                51.3035598373       25.8670372712       80.6923666966
H                50.8143254192       36.1459140816       81.7413988266
H                53.1279505293       32.3364906240       76.3082529999
