127
Properties=species:S:1:pos:R:3 pbc="F F F"
N      57.73700000      48.14300000      66.70400000 
C      57.76700000      48.13400000      65.24700000 
C      58.85200000      48.96200000      64.79000000 
O      59.38600000      49.93700000      65.46000000 
C      56.44200000      48.53500000      64.62400000 
C      56.01500000      49.89000000      64.91400000 
C      56.13600000      50.97200000      64.11500000 
C      55.19300000      50.38300000      66.09300000 
N      55.57600000      52.09700000      64.61700000 
C      54.96000000      51.80100000      65.87500000 
C      54.75400000      49.83000000      67.22500000 
C      54.27000000      52.47500000      66.76100000 
C      54.02500000      50.57300000      68.16000000 
C      53.80800000      51.94700000      67.87900000 
H      57.82600000      49.03900000      67.20700000 
H      57.98500000      47.13200000      64.98300000 
H      56.45000000      48.34600000      63.62700000 
H      55.73600000      47.88200000      65.05100000 
H      56.67000000      51.02800000      63.17000000 
H      55.51500000      52.97200000      64.24300000 
H      54.95800000      48.76500000      67.44800000 
H      54.03200000      53.59000000      66.55300000 
H      53.68300000      50.13500000      69.04400000 
H      53.22300000      52.47200000      68.59500000 
N      59.20100000      48.77600000      63.44700000 
C      60.19500000      49.50600000      62.80900000 
C      59.45000000      50.56900000      61.91900000 
O      58.21700000      50.53200000      61.73000000 
C      60.84200000      48.66200000      61.71600000 
C      61.52200000      47.40400000      62.40800000 
O      61.47100000      46.32300000      61.79500000 
O      62.03000000      47.56300000      63.59300000 
H      58.68000000      48.04300000      62.99000000 
H      60.86400000      49.98100000      63.41400000 
H      60.19400000      48.28400000      60.99700000 
H      61.66600000      49.17100000      61.30500000 
N      55.17600000      52.38700000      57.50900000 
C      55.72300000      51.59800000      58.67200000 
C      55.99800000      50.21500000      58.10200000 
O      55.12200000      49.64300000      57.36900000 
C      54.67400000      51.47000000      59.74600000 
C      54.98900000      50.36700000      60.73200000 
C      54.55200000      52.79300000      60.49000000 
H      54.42600000      51.96900000      57.10700000 
H      56.66200000      52.03000000      59.02700000 
H      53.71700000      51.28000000      59.26900000 
H      54.25700000      50.39400000      61.56400000 
H      54.90000000      49.41900000      60.26600000 
H      55.97200000      50.49400000      61.15800000 
H      53.76100000      52.82900000      61.13800000 
H      55.46000000      53.02900000      61.03000000 
H      54.38100000      53.64500000      59.77100000 
N      57.09600000      49.62300000      58.43400000 
C      57.47500000      48.28500000      57.97400000 
C      57.58600000      47.37800000      59.16500000 
O      58.48100000      47.70700000      60.07000000 
C      58.82100000      48.25900000      57.23800000 
C      59.27100000      46.93000000      56.83100000 
C      58.88800000      46.51600000      55.36400000 
N      60.16000000      46.34000000      54.60400000 
C      60.46000000      45.28100000      53.91400000 
N      61.73700000      45.17400000      53.45900000 
N      59.57700000      44.36000000      53.57600000 
H      57.75500000      50.03000000      59.08300000 
H      56.68100000      47.94100000      57.31300000 
H      58.74200000      48.96100000      56.38000000 
H      59.55000000      48.74000000      57.92900000 
H      60.36000000      46.84100000      56.91700000 
H      58.86500000      46.15500000      57.49100000 
H      58.35300000      45.60600000      55.37400000 
H      58.30000000      47.31500000      54.91300000 
H      60.80600000      47.00800000      54.70900000 
H      62.37900000      45.74900000      53.74600000 
H      61.96800000      44.39300000      52.85800000 
H      58.59300000      44.45400000      53.76800000 
H      59.84600000      43.54200000      53.10800000 
N      56.88800000      46.29400000      59.24300000 
C      56.85900000      45.40700000      60.35500000 
C      56.15500000      45.87600000      61.54000000 
O      56.00000000      47.17500000      61.72800000 
C      58.32100000      44.95600000      60.76900000 
C      59.16000000      44.49500000      59.61900000 
O      58.66900000      43.80200000      58.79900000 
N      60.34100000      44.84700000      59.63000000 
H      56.24900000      46.13100000      58.50000000 
H      56.37300000      44.46900000      59.96200000 
H      58.75900000      45.76400000      61.30900000 
H      58.17300000      44.12700000      61.48000000 
H      60.98800000      44.58700000      58.98800000 
H      60.76200000      45.53200000      60.45700000 
N      55.75000000      45.00700000      62.35700000 
C      55.19700000      45.27400000      63.70500000 
C      55.20200000      43.88400000      64.36000000 
O      54.75400000      42.95300000      63.84100000 
C      53.79000000      45.86100000      63.57300000 
C      52.96000000      45.70800000      64.92700000 
C      53.62000000      46.31900000      66.06100000 
C      51.65200000      46.40800000      64.66900000 
H      55.75300000      44.00500000      62.08700000 
H      55.88800000      45.92600000      64.19200000 
H      53.90800000      46.87900000      63.34100000 
H      53.29200000      45.38300000      62.81700000 
H      52.82300000      44.67900000      65.06500000 
H      53.05000000      46.15400000      66.97300000 
H      54.63500000      45.99900000      66.27100000 
H      53.67000000      47.42500000      66.00200000 
H      50.93900000      46.12900000      65.46100000 
H      51.72300000      47.42000000      64.66300000 
H      51.15700000      46.05000000      63.73100000 
N      55.78300000      40.35800000      61.45900000 
C      55.78900000      40.88300000      60.14100000 
C      54.40100000      40.90000000      59.57900000 
O      54.09600000      40.46100000      58.42800000 
C      56.74400000      40.06200000      59.30200000 
C      58.15900000      40.18100000      59.76900000 
O      58.36000000      40.77900000      60.89700000 
O      59.08200000      39.65600000      58.99900000 
H      56.55700000      40.63500000      62.02100000 
H      56.13600000      41.86300000      60.18000000 
H      56.46700000      39.02200000      59.30400000 
H      56.70600000      40.36000000      58.23800000 
H      56.95382312      47.80451177      66.99046064 
H      59.96638222      51.30580254      61.48256968 
H      54.91956959      53.20169706      57.79274663 
H      55.60283352      43.76047620      65.26778541 
H      55.04004923      40.63062835      61.88759997 
H      53.64723450      41.27366008      60.11956981 
