174
Properties=species:S:1:pos:R:3 pbc="F F F"
N      49.90100000      35.76800000      82.14000000 
C      50.38000000      35.33900000      83.45400000 
C      49.28800000      34.46600000      84.04800000 
O      48.39800000      34.94700000      84.78700000 
C      50.72600000      36.52400000      84.31900000 
S      51.61400000      36.02400000      85.91000000 
H      49.25900000      36.54500000      82.11500000 
H      51.26800000      34.73100000      83.29000000 
H      51.36500000      37.19700000      83.79800000 
H      49.84400000      37.04800000      84.64900000 
H      52.71500000      35.49700000      85.37300000 
N      49.32300000      33.18000000      83.71700000 
C      48.32300000      32.24800000      84.24500000 
C      48.49200000      32.14100000      85.74800000 
O      47.54400000      31.85200000      86.48100000 
C      48.50400000      30.84800000      83.58700000 
O      49.05500000      30.97700000      82.26700000 
C      47.18700000      30.11600000      83.53200000 
H      49.96900000      32.83500000      83.04000000 
H      47.34400000      32.63200000      84.05400000 
H      49.25300000      30.29100000      84.14400000 
H      48.41300000      31.12400000      81.59500000 
H      47.32500000      29.09400000      83.21800000 
H      46.69700000      30.09300000      84.50100000 
H      46.51200000      30.59300000      82.84200000 
N      49.76600000      32.32600000      86.20200000 
C      50.13600000      32.18700000      87.59300000 
C      50.67700000      30.78100000      87.77100000 
O      51.71700000      30.44000000      87.28900000 
H      50.45900000      32.52500000      85.55000000 
H      50.97900000      32.87700000      87.76800000 
H      49.33600000      32.44200000      88.24500000 
N      49.83200000      29.92600000      88.42800000 
C      50.14200000      28.53000000      88.62500000 
C      51.39300000      28.41900000      89.50000000 
O      51.88500000      29.42000000      90.05100000 
C      50.21600000      27.77000000      87.27900000 
C      48.89800000      27.08100000      86.81800000 
C      48.54400000      25.85500000      87.65600000 
C      47.69000000      28.05800000      86.76500000 
H      48.99200000      30.28200000      88.80400000 
H      49.33900000      28.13100000      89.22400000 
H      50.54400000      28.43800000      86.52400000 
H      50.98100000      26.97900000      87.33100000 
H      49.08500000      26.75800000      85.81700000 
H      47.66600000      25.36600000      87.26100000 
H      49.36900000      25.13100000      87.64300000 
H      48.34500000      26.11000000      88.69100000 
H      46.86200000      27.57500000      86.30800000 
H      47.40500000      28.37300000      87.76200000 
H      47.95000000      28.95000000      86.19400000 
N      51.89800000      27.19000000      89.70200000 
C      53.10600000      26.96300000      90.48900000 
C      54.28900000      26.50500000      89.63600000 
O      55.43600000      26.71800000      90.08000000 
C      52.84200000      25.98200000      91.63700000 
H      51.37000000      26.40000000      89.42300000 
H      53.38500000      27.92400000      90.89900000 
H      53.75500000      25.84300000      92.21500000 
H      52.08600000      26.37700000      92.28100000 
H      52.53100000      25.03000000      91.25600000 
N      54.04300000      25.84700000      88.51600000 
C      55.10600000      25.25000000      87.72200000 
C      55.64300000      26.16800000      86.65200000 
O      56.83700000      26.13400000      86.32600000 
C      54.64700000      23.92000000      87.06500000 
C      54.28300000      22.84600000      88.04900000 
C      55.09700000      21.89400000      88.56200000 
C      52.96500000      22.57800000      88.62800000 
N      54.43100000      21.06300000      89.42600000 
C      53.12100000      21.47800000      89.47200000 
C      51.70800000      23.16400000      88.49400000 
C      52.04100000      20.94500000      90.21000000 
C      50.64500000      22.67200000      89.20000000 
C      50.80300000      21.56900000      90.06400000 
H      53.11400000      25.71600000      88.22400000 
H      55.95100000      25.04100000      88.38000000 
H      53.81200000      24.12400000      86.39300000 
H      55.47300000      23.56700000      86.45200000 
H      56.14600000      21.74700000      88.36300000 
H      54.81500000      20.31500000      89.90600000 
H      51.55400000      24.01000000      87.82900000 
H      52.17200000      20.11000000      90.85600000 
H      49.67200000      23.10800000      89.11700000 
H      49.96600000      21.18800000      90.61400000 
N      54.74000000      26.93700000      86.00000000 
C      55.06400000      27.88000000      84.95300000 
C      55.08500000      29.27800000      85.51800000 
O      55.09400000      29.48300000      86.78300000 
C      54.12700000      27.68500000      83.76100000 
C      54.20700000      26.25800000      83.18000000 
C      52.90900000      25.46300000      83.23700000 
O      52.90800000      24.32800000      83.72100000 
O      51.89100000      26.05900000      82.73600000 
H      53.80100000      26.97100000      86.35100000 
H      56.09700000      27.66800000      84.63900000 
H      53.12700000      27.90800000      84.05500000 
H      54.38100000      28.39700000      82.97500000 
H      54.50000000      26.31000000      82.13200000 
H      54.96400000      25.68900000      83.67200000 
N      55.10900000      30.32300000      84.69700000 
C      55.05800000      31.70600000      85.14500000 
C      54.43500000      32.54900000      84.05100000 
O      53.49900000      33.32500000      84.30600000 
C      56.47900000      32.20800000      85.57300000 
C      56.43800000      33.35700000      86.55700000 
C      56.36900000      34.69800000      86.27600000 
C      56.52500000      33.25900000      87.99400000 
N      56.42000000      35.41900000      87.42300000 
C      56.52700000      34.58100000      88.50200000 
C      56.63100000      32.19700000      88.89500000 
C      56.61100000      34.84500000      89.86200000 
C      56.72300000      32.45600000      90.23500000 
C      56.71900000      33.76800000      90.73300000 
H      55.10300000      30.12600000      83.70000000 
H      54.39400000      31.75800000      85.98000000 
H      56.96900000      31.37500000      86.04400000 
H      57.05100000      32.48400000      84.68700000 
H      56.29900000      35.17200000      85.33100000 
H      56.39600000      36.42300000      87.47800000 
H      56.62600000      31.18000000      88.53700000 
H      56.61400000      35.85500000      90.23200000 
H      56.79500000      31.63900000      90.94600000 
H      56.79200000      33.94600000      91.78300000 
N      54.92900000      32.40400000      82.80900000 
C      54.37000000      33.05700000      81.63700000 
C      54.08200000      32.01000000      80.56700000 
O      54.85900000      31.04200000      80.40200000 
C      55.38500000      34.08100000      81.03300000 
C      55.61600000      35.26400000      81.94400000 
C      56.65600000      35.51200000      82.73300000 
C      54.70100000      36.37000000      82.13600000 
N      56.49100000      36.67800000      83.43700000 
C      55.27700000      37.20200000      83.07800000 
C      53.46000000      36.71200000      81.54100000 
C      54.63200000      38.39700000      83.53800000 
C      52.84100000      37.90400000      81.95600000 
C      53.42100000      38.69100000      82.95300000 
H      55.72600000      31.83500000      82.64500000 
H      53.47800000      33.55700000      81.91100000 
H      56.32600000      33.57300000      80.86700000 
H      55.01200000      34.39800000      80.08500000 
H      57.55300000      34.92400000      82.87100000 
H      57.13200000      37.08000000      84.05800000 
H      53.01800000      36.10900000      80.81500000 
H      55.07200000      38.99800000      84.27600000 
H      51.91900000      38.17600000      81.52200000 
H      52.89200000      39.56600000      83.29100000 
N      53.02200000      32.23400000      79.79100000 
C      52.65100000      31.37900000      78.67400000 
C      52.40400000      32.25100000      77.46800000 
O      51.53600000      33.13700000      77.49900000 
C      51.40800000      30.55800000      79.01100000 
C      51.14500000      29.40100000      78.00200000 
C      49.84600000      28.64300000      78.24500000 
N      49.51000000      28.38900000      79.65300000 
C      50.14900000      27.58300000      80.49800000 
N      49.72800000      27.46400000      81.75000000 
N      51.21100000      26.88100000      80.12100000 
H      52.36900000      32.97700000      80.04300000 
H      53.49000000      30.71100000      78.49600000 
H      51.53600000      30.14000000      79.98400000 
H      50.54100000      31.20300000      79.05000000 
H      51.10200000      29.79100000      76.99300000 
H      52.00800000      28.72900000      78.02700000 
H      49.00700000      29.23500000      77.86400000 
H      49.84400000      27.72400000      77.70800000 
H      48.73900000      28.89800000      80.01700000 
H      48.95800000      27.96700000      82.07500000 
H      50.26700000      26.90600000      82.38200000 
H      51.56500000      26.89500000      79.18800000 
H      51.68700000      26.36200000      80.81600000 
H      50.60065189      36.01816437      81.63215650 
H      52.94172517      32.11707504      76.63558439 
