 380 
 
N               114.3914183515       66.1170078785      158.9480718715
C               113.7002094047       65.3883584899      157.9107530677
C               113.5942621498       63.8976084930      158.2593926437
O               113.8489524324       63.4615569910      159.3743121986
H               113.8309976100       66.6163449384      159.6318414110
H               112.6991316984       65.8045378000      157.7667892089
H               114.2501745130       65.4836718163      156.9690128744
N               113.1989166012       63.1432271110      157.2320337631
C               113.0682264330       61.7022124851      157.3051973910
C               114.2839191062       61.0789130769      158.0052820087
O               115.4257175283       61.4744440034      157.8666230691
C               112.9145910888       61.1030615987      155.8985037974
C               114.1992473920       61.0468245441      155.0599483506
C               113.9363479342       60.2379055403      153.7907800770
C               114.7242007684       62.4376479375      154.7125204526
H               112.7595034569       63.5932038133      156.4321772290
H               112.1658956924       61.4616979857      157.8862427730
H               112.5352534833       60.0855846421      156.0099191139
H               112.1679931830       61.6988345704      155.3689120907
H               114.9801271285       60.5359713253      155.6312018506
H               114.8447636574       60.1959734916      153.1935709337
H               113.6393423158       59.2265642835      154.0521866154
H               113.1531006883       60.7056466282      153.1976599491
H               115.5567101905       62.3713328657      154.0125788595
H               113.9505775929       63.0523840135      154.2529822847
H               115.0867497581       62.9471461922      155.6014185937
N               109.0742765361       57.2583951139      160.1065189015
C               108.6609696811       57.6936501636      158.7821975155
C               109.1716573837       56.7669114578      157.6797393052
O               108.5036881954       56.4937085964      156.6957554482
C               109.1893927119       59.1035656894      158.5290190524
H               109.5827482095       57.9315239106      160.6650336003
H               107.5663675049       57.6690282179      158.7234117413
H               108.8369696130       59.4632335065      157.5665676430
H               108.8420775373       59.7759817971      159.3073725421
H               110.2769952471       59.0995451677      158.5231726401
N               110.4459682084       56.3765367054      157.8355937799
C               111.1463334649       55.6357235621      156.8091700109
C               111.6723245656       54.2917725543      157.3382768464
O               112.8534264126       53.9992445501      157.3889087727
C               112.2527906323       56.4649067300      156.1382279467
C               112.0202333018       56.6126805302      154.6343616784
C               110.8338990470       57.5374409999      154.3358321641
C               110.3615932802       57.4810772845      152.8886701191
N               109.5957127103       56.2268878010      152.6358610229
H               110.9483106164       56.6569899396      158.6670193252
H               110.3737977587       55.3794871877      156.0729710573
H               112.2970433070       57.4470442264      156.6094168835
H               113.2049312910       55.9620523388      156.3142111250
H               112.9257158650       57.0214633873      154.1876841725
H               111.8890617546       55.6128890089      154.2146784907
H               109.9958204600       57.3018330252      154.9937765850
H               111.1326650212       58.5625181511      154.5514198967
H               109.7050267796       58.3273164568      152.6834719953
H               111.2089617272       57.5093034348      152.2036745786
H               109.2551262636       56.1915415467      151.6649717124
H               110.2007190494       55.4090231468      152.7935633362
H               108.7935692300       56.1712092108      153.2826414336
N               115.4223989766       54.4011436030      150.6863250538
C               115.9538961899       55.7478018467      150.6987378027
C               117.4815843032       55.7680718674      150.7270038638
O               118.0830518297       56.7078603620      150.2101791814
C               115.3378450018       56.6341569649      151.7777887162
C               113.9270309481       57.0853429511      151.3759303761
C               113.9489991501       57.8080898502      150.0369930559
O               113.6560966086       57.2532042646      148.9882149718
N               114.3025836122       59.0992131910      150.0997552099
H               114.9944347398       54.0134811625      151.5158795360
H               115.7056127719       56.1796382155      149.7189768306
H               115.2964792550       56.0864115326      152.7205499239
H               115.9850108491       57.5038547171      151.9038439615
H               113.2930890676       56.2040067790      151.2759623679
H               113.5365943103       57.7577864290      152.1372592808
H               114.6056455141       59.5354942641      150.9534791994
H               114.4133335207       59.6231391048      149.2467861907
N               117.9330145700       56.0679359354      147.2290218642
C               117.7123764796       57.4403844394      146.8008998491
C               118.9911815780       58.2605145592      147.0269686285
O               119.4517854975       59.0042149894      146.1676694501
C               116.5679979823       58.0791276339      147.5736571707
H               117.1980244131       55.5795421624      147.7289460184
H               117.5053377200       57.4548345997      145.7212258461
H               116.4120536020       59.0943086544      147.2180298526
H               115.6507030477       57.5100251317      147.4374274020
H               116.8167494821       58.1180130175      148.6318061126
N               121.6841536311       57.5828179098      144.7530598727
C               121.4280208587       58.2526363418      143.4967185255
C               121.9103839635       59.6994893750      143.5698908876
O               122.4890961084       60.2134789993      142.6137324362
C               119.9445146690       58.2325106350      143.1409984239
C               119.3711298763       56.8839651943      142.7843899027
C               117.9855309839       56.7503200629      142.7705968016
C               120.1465881385       55.7933711305      142.4170196347
C               117.3860052391       55.5657497728      142.3857866749
C               119.5458088639       54.6053361034      142.0322832572
C               118.1680963283       54.4869592565      142.0083017685
H               120.8910812618       57.2230604098      145.2725723436
H               122.0239032108       57.7734174500      142.7092274555
H               119.3903862203       58.6517735310      143.9839872946
H               119.8033438369       58.8982606788      142.2831925785
H               117.3708939966       57.5937360993      143.0536126169
H               121.2226119923       55.8592277729      142.4113238485
H               116.3088970286       55.4848495351      142.3770623572
H               120.1643397331       53.7700534891      141.7397681032
H               117.7057032958       53.5619441036      141.6987737974
N               121.6904040832       60.3520585450      144.7112017248
C               122.2119028910       61.6966004852      144.8752836766
C               123.7422442658       61.6494601194      144.8009484624
O               124.3864314449       62.4917056215      144.1833199299
C               121.7427958326       62.3080087259      146.2058037651
O               120.3320843659       62.2134519120      146.2261304349
C               122.1994147993       63.7628634038      146.3166285850
H               121.0131117816       60.0091276704      145.3872225519
H               121.8634335484       62.3254458792      144.0453706309
H               122.1673964507       61.7028922064      147.0196350456
H               120.0183037355       62.6015760105      147.0515950533
H               121.9732069222       64.1561580415      147.3034437113
H               123.2657433538       63.8428202696      146.1328210856
H               121.6837084556       64.3588189718      145.5682395160
N               124.6674701981       61.5150916655      141.4390790795
C               124.6135163294       62.8405653378      140.8489670553
C               125.9324836792       63.5620699880      141.1335772227
O               126.5592416532       64.1169276169      140.2330748958
C               123.3988075973       63.6438922123      141.3408538913
C               122.1092521586       63.0151612749      140.7938614383
C               123.5422439192       65.1016910525      140.9046570550
C               120.8414487313       63.6916944175      141.3062989090
H               123.8871941212       61.1946851424      142.0077222817
H               124.5620249650       62.7433204633      139.7543619566
H               123.3950043091       63.5957707010      142.4330043268
H               122.1287606915       63.0580895278      139.7021799577
H               122.0814482327       61.9619392525      141.0764465439
H               122.7020673448       65.6916989419      141.2533711538
H               124.4527019035       65.5389932072      141.3057356160
H               123.5920028224       65.1721283314      139.8198334077
H               119.9696679393       63.1285026236      140.9840163200
H               120.8475216488       63.7298623848      142.3915908416
H               120.7498788674       64.7025013907      140.9196562335
N               117.5550543159       63.5983410063      133.5524079318
C               117.3551002212       62.7109725514      134.6756745869
C               117.5783494986       63.4508657934      135.9984930125
O               116.7541134735       63.3102264154      136.8979646950
C               118.1916026917       61.4120218137      134.5854885607
O               119.4941129136       61.6182218837      134.1133058769
C               117.5204685801       60.4126494727      133.6450202192
H               118.2424579950       63.3543199372      132.8410428996
H               116.2972006805       62.4117896685      134.7032131298
H               118.2211135714       60.9883213437      135.6046990177
H               119.8901906405       62.4173470374      134.5033225330
H               118.1383198543       59.5221201849      133.5797704348
H               116.5378798773       60.1385523772      134.0150034240
H               117.4319017228       60.8462808968      132.6526212179
N               118.6698114352       64.1987110647      136.1219788246
C               118.9413008634       64.9450239434      137.3394232912
C               117.6864529086       65.6941877306      137.7669960691
O               117.2194747891       65.5835263237      138.8969025104
C               120.1178212658       65.9166074486      137.1452152669
C               120.1534980263       66.9505267841      138.2703746953
C               121.4325007844       65.1424263984      137.0957939838
H               119.3058067866       64.3442011369      135.3423383774
H               119.1770869977       64.2427360297      138.1517809544
H               119.9598136515       66.4398622623      136.1976136519
H               121.0591947642       67.5459025950      138.1973077438
H               119.3029168175       67.6256973057      138.2121871097
H               120.1379013177       66.4616947153      139.2418529687
H               122.2606292791       65.8281293117      136.9379237615
H               121.5911532323       64.6219864569      138.0367472577
H               121.4251837950       64.4183427787      136.2872068671
N               117.1415698794       66.4759698392      136.8367832982
C               115.9979014567       67.3032709411      137.1651182393
C               114.9347681589       66.4317473771      137.8400056992
O               114.4292723364       66.7092291259      138.9227357870
C               115.4498697981       67.9558291092      135.8975854129
C               116.3774409183       69.0679366162      135.4068338039
O               117.4225021876       69.3598119591      135.9595390966
N               115.9333279528       69.6978879998      134.3082203857
H               117.5950104146       66.6159153289      135.9410972315
H               116.2979264618       68.0818607875      137.8814874308
H               115.3549263700       67.2012690273      135.1136769273
H               114.4669708850       68.3826773702      136.1010444949
H               116.4693593876       70.4659651828      133.9367223091
H               115.0513249985       69.4684924575      133.8834198354
N               114.5664652994       65.3761554887      137.1103757138
C               113.5357097077       64.4699479023      137.5660903977
C               113.8621130844       63.8585221634      138.9374498700
O               112.9831314262       63.7608868606      139.7885076370
C               113.3071205354       63.3615086855      136.5341537726
C               112.4245492780       63.8882722606      135.4053994670
O               111.2064150019       63.8191113624      135.4607464200
N               113.0696892414       64.4419935263      134.3723919794
H               115.1111078846       65.1186803348      136.2952858278
H               112.6047773556       65.0363645384      137.7115257313
H               114.2722314497       63.0102453353      136.1712008773
H               112.7733836572       62.5419404188      137.0158950905
H               112.5208032144       64.8462065963      133.6293728051
H               114.0744804613       64.5575052989      134.3476384396
N               115.1046448057       63.4223382486      139.0986220720
C               115.5418712430       62.7733504385      140.3182327034
C               115.3785842568       63.7122257335      141.5088914055
O               114.8926140735       63.3257329390      142.5654391566
C               117.0073020795       62.3464625627      140.2022086692
C               117.2310104057       61.1457165196      139.2710082173
C               118.7155108204       61.0414592955      138.9231810707
C               116.7544289911       59.8454119533      139.9126622117
H               115.7861749814       63.4907769747      138.3489314310
H               114.9007772808       61.9057183522      140.5158767698
H               117.5716976080       63.2053548448      139.8350838934
H               117.3760090083       62.0945420263      141.1980289757
H               116.6722354303       61.3094031047      138.3447068022
H               118.8963836976       60.1859808846      138.2769864454
H               119.0532724307       61.9357931110      138.4053358195
H               119.3151154141       60.9173114132      139.8222359925
H               116.9123863231       59.0098071978      139.2354169741
H               117.3101231979       59.6486573856      140.8267724310
H               115.6960245461       59.8866436912      140.1538416157
N               115.8307365831       64.9561459507      141.3330892044
C               115.7100359190       65.9041580928      142.4229918693
C               114.2448509773       65.9654868297      142.8545556352
O               113.9067515167       65.8394537554      144.0244127598
C               116.2445191791       67.3215645029      142.0920778865
O               115.4082599450       68.0394977357      141.2243979356
C               117.6907492113       67.2614503858      141.5976370457
H               116.2402200438       65.2390512591      140.4505072832
H               116.2732937782       65.5266529507      143.2862897501
H               116.2048856857       67.8888253313      143.0305122738
H               115.3372027008       67.5928735205      140.3628303542
H               118.0750513268       68.2728467928      141.4984953183
H               118.3081990548       66.7147384574      142.3016028143
H               117.7469278563       66.7766133100      140.6275906849
N               113.3752596102       66.1556371124      141.8578756718
C               111.9643078912       66.3086133078      142.1293316634
C               111.4244775264       65.0785105655      142.8782334651
O               110.6970107383       65.1863409865      143.8558317633
C               111.1974831522       66.5252573122      140.8226794232
O               109.8657287568       66.8366463045      141.1555280983
H               113.6985500751       66.3097791459      140.9109873812
H               111.8002755619       67.1809249544      142.7781038002
H               111.6749677932       67.3537973870      140.2837984410
H               111.2531055033       65.6152776414      140.2112487579
H               109.3720035136       67.0452949959      140.3516936940
N               111.8036039712       63.9161371659      142.3495144871
C               111.3587459976       62.6398665195      142.8765155659
C               111.7342360084       62.5299270174      144.3510728435
O               110.8880199449       62.3313287726      145.2192823932
C               111.9705779181       61.5033048382      142.0689733664
H               112.3677657169       63.8918473874      141.5049015048
H               110.2623133130       62.5947026831      142.8344173190
H               111.6151496010       60.5487396492      142.4452587607
H               111.6840272846       61.6046987044      141.0256631305
H               113.0538561689       61.5361775166      142.1443711276
N               113.0329315892       62.6347345822      144.6426398149
C               113.4288455356       62.4837166995      146.0266377423
C               112.7772864506       63.5652968873      146.8931990156
O               112.3499835827       63.2814761728      148.0097325792
C               114.9393533206       62.3714475618      146.2178398595
C               115.7406313467       63.6167874404      145.8531535312
C               117.2197786030       63.3638766664      146.1828832176
N               118.0120486244       64.5755480207      146.1482810259
C               118.1041362047       65.4665389055      147.1397195743
N               117.6330003188       65.2135820232      148.3428912826
N               118.7569535350       66.6121981569      146.8972510306
H               113.7253564510       62.8655832941      143.9380494887
H               112.9744648681       61.5488343346      146.3914556763
H               115.1160803047       62.1615126018      147.2750258858
H               115.2900106728       61.5244221749      145.6264949760
H               115.6095604164       63.8605632384      144.7994690922
H               115.3824253608       64.4571594803      146.4495320446
H               117.2753201921       62.9249831985      147.1791547399
H               117.6620343948       62.6643274955      145.4733241433
H               118.3564091765       64.8539076181      145.2420540232
H               117.0137629193       64.4068896830      148.5830472628
H               117.6575596200       65.9198399399      149.0600420310
H               119.2096178169       66.7798080609      146.0147471953
H               118.9114685547       67.2740484256      147.6386598040
N               112.6336938932       64.7729800470      146.3473277758
C               111.9362546718       65.8583555836      147.0006555115
C               110.4381385944       65.6094270195      147.2344560238
O               109.7751217869       66.4433049006      147.8405873347
C               112.1412502723       67.1215964085      146.1403682001
O               111.3169870797       68.2064979164      146.4532817909
H               113.0306930547       64.9787790027      145.4345212938
H               112.3520897498       66.0177752196      148.0085339861
H               113.2025806913       67.3995495601      146.2033397562
H               111.9096425285       66.8561811738      145.1070309139
H               111.2626577435       68.3133246007      147.4106549693
N               109.9215161785       64.4922079437      146.7246944655
C               108.5650139633       64.0772571409      146.9799394722
C               108.4682595946       62.9822226975      148.0517416505
O               107.4088269391       62.7571694242      148.6220387566
C               107.9082482555       63.5489605410      145.6894604246
C               106.3911791028       63.7614890050      145.6932023037
C               105.9677853455       65.0599312212      144.9867692106
N               106.7873034331       66.1945425006      145.3643156981
C               107.8189444129       66.7078267159      144.6883687976
N               107.9820994299       66.4847372917      143.3911427879
N               108.6040543899       67.5898119475      145.3087244838
H               110.4661824005       63.8732494802      146.1337966278
H               108.0315122980       64.9437579305      147.3810089078
H               108.3788825010       64.0534943712      144.8445999795
H               108.1433221134       62.4878618145      145.6044789299
H               105.9004716868       62.9325830745      145.1853800812
H               106.0466112710       63.7552175044      146.7275228380
H               106.0190056315       64.9156828060      143.9092920665
H               104.9334720594       65.2894154401      145.2491951769
H               106.7178291412       66.4608559760      146.3366636436
H               107.3710849275       65.8588612088      142.8935051482
H               108.8164694780       66.7866161684      142.9045145946
H               108.6641297818       67.6015763926      146.3179101002
H               109.4248478830       67.9448164708      144.8438253776
N               109.5742762940       62.2499282693      148.2159070831
C               109.6763992858       61.1574450761      149.1562722170
C               110.1614111052       61.6789906463      150.5143927780
O               109.5788681941       61.4322259046      151.5613492368
C               110.6196691620       60.0698188696      148.6121311649
C               110.1478818479       59.6001518041      147.2316113686
C               110.6768781304       58.9215774611      149.6137911123
C               111.1586892508       58.6934786408      146.5385729996
H               110.4396723766       62.5764589739      147.8088022902
H               108.6653119497       60.7616384895      149.3035764170
H               111.6139957188       60.5184624825      148.5124695455
H               109.1935161924       59.0824601315      147.3402438013
H               109.9832700981       60.4757573754      146.6015699195
H               111.3768496626       58.1658593549      149.2748741404
H               110.9959231014       59.3037077733      150.5789668680
H               109.6854842378       58.4888477903      149.7100196269
H               110.7811649620       58.4046071612      145.5616676058
H               112.0999902493       59.2200417434      146.4001366487
H               111.3559715000       57.7937802170      147.1124395556
N               111.3196904407       62.3567015957      150.4483083621
C               111.7384457011       63.2159835069      151.5341798007
C               110.6568922044       64.2758422603      151.7551020252
O               110.1782317669       64.9003251940      150.8136517555
C               113.0150399588       63.9634019751      151.1541345068
C               114.1885827616       63.0636082864      150.7945545078
C               115.3108105288       63.8871267196      150.1162445426
O               115.4939289300       65.0645315930      150.4619525238
O               115.9751653843       63.2886452203      149.2320250640
H               111.6431842494       62.6691396062      149.5411572691
H               111.8639992579       62.6218055876      152.4450008938
H               112.7735918347       64.5940165021      150.2931253485
H               113.2918708220       64.6353430600      151.9704513409
H               114.6006992708       62.5997558635      151.6916461841
H               113.8774863172       62.2860128015      150.0972026940
N               110.2607592862       64.4184239497      153.0199250365
C               109.4616562349       65.5368897353      153.4601889576
C               110.3155003900       66.8103432891      153.4525822998
O               111.5340586962       66.7428907418      153.5139470562
C               109.0682000545       65.2646434490      154.9172213964
C               110.3630548409       65.1245624961      155.7863214643
O               111.1119615459       64.1543034131      155.5194939701
O               110.5472930446       65.9696474741      156.6741392222
H               110.7938290820       64.0109205656      153.7961603259
H               108.5918601993       65.6433973054      152.8009907119
H               108.4633676625       66.0756911290      155.3210870766
H               108.5117635938       64.3275329440      154.9647211022
N               109.6468664340       67.9867828894      153.4253587500
C               110.2699410919       69.1676035362      153.9904101398
C               109.2096024997       70.2348458172      154.1927176883
O               108.1874240317       70.2992719839      153.5234269977
C               111.3995297926       69.7206688341      153.0989680615
O               110.8605756692       70.3885905093      151.9878923051
H               108.6380996424       67.9721453219      153.4797373078
H               110.7131696365       68.9011594535      154.9630874925
H               111.9953466541       70.4137957706      153.7113693054
H               112.0251027343       68.8710009609      152.8131565807
H               111.5191631039       70.3894926330      151.2793361081
H               114.8964115314       65.5482736100      159.4292404700
H               114.1619335629       60.2988329381      158.6189549707
H               108.3483056977       57.0367054878      160.5900683317
H               111.0311059505       53.5981817412      157.6665609791
H               114.7763771222       54.3388714451      150.0628044511
H               117.9835521983       55.0212439816      151.1632106282
H               118.0947799708       55.5512816554      146.5100640698
H               119.4776360536       58.1981677583      147.8984472109
H               122.2124785853       56.8683227110      144.6103386277
H               124.2430131963       60.9179391938      145.2636661016
H               124.7383127956       60.8986565064      140.7871672596
H               126.2977870726       63.5875617626      142.0641166362
H               116.7836656473       63.6849472279      133.0969313854
H               109.3291040818       70.9304547252      154.9011297287
