 498 
 
N                33.4389108633       28.8786021704       26.7533108174
C                34.2037875008       28.1498605325       25.7479245439
C                34.1722102278       26.6743285551       26.1850539626
O                35.0892462857       26.1629825794       26.8079931221
C                35.6693821467       28.5621471857       25.6930285818
C                36.0119917820       29.8818124278       24.9999949992
C                35.7100433656       29.8280268294       23.5042470335
C                35.3064057536       31.0697926622       25.6471029847
H                33.9714245018       29.3032656835       27.4973284319
H                33.7150937894       28.2709320896       24.7782446750
H                36.0581424153       28.5732343770       26.7159968581
H                36.1695054995       27.7537247956       25.1539400617
H                37.0935272434       30.0178245850       25.1223716290
H                36.2159791634       30.6501987669       23.0017057890
H                36.0687880679       28.8987313446       23.0678179342
H                34.6421379899       29.9207481144       23.3263920082
H                35.6123088893       31.9939513102       25.1623995969
H                34.2289455003       30.9815625450       25.5473455536
H                35.5568896650       31.1504514132       26.7043059421
N                33.0392632004       26.0214215144       25.8912145330
C                32.8429397424       24.7192476357       26.4975102071
C                33.9403163379       23.7418424778       26.0588321742
O                34.4186319886       22.9553337657       26.8701437889
C                31.4158836560       24.2239278209       26.2770154632
C                30.4192575272       25.1143413286       26.9728608937
C                29.3544880161       25.6580237230       26.2671798571
C                30.5364301031       25.4016065691       28.3294300572
C                28.3930101810       26.4109628853       26.9113410814
C                29.5917395984       26.1666844026       28.9831076842
C                28.4901031859       26.6477316912       28.2779429710
O                27.5436100439       27.3494961459       28.9337161387
H                32.2252046500       26.5491315595       25.5830323010
H                33.0218150403       24.8129965692       27.5788566770
H                31.1879476406       24.1759729702       25.2124306279
H                31.3603796113       23.2079500554       26.6744479827
H                29.2707947787       25.4808463870       25.2074118085
H                31.3769152100       25.0206717838       28.8923440827
H                27.5578443632       26.8057151449       26.3559857676
H                29.7051722708       26.3732771177       30.0359283181
H                26.7922141719       27.5031608888       28.3418156915
N                34.3588854233       23.8159976302       24.7912663028
C                35.4834974615       23.0475042063       24.2973032447
C                36.4948022570       24.0260199781       23.6923415375
O                36.2871720062       25.2221215263       23.5975666363
C                34.8334500198       22.2421938869       23.1667745549
C                33.9268696131       23.2982431166       22.5173021438
C                33.6510572420       24.3333500513       23.6317578574
H                35.9417339228       22.4445863514       25.0854640499
H                35.5514131181       21.8055574619       22.4774243349
H                34.2427618992       21.4334437482       23.5993871574
H                34.4342931488       23.7690948751       21.6768670491
H                33.0060920065       22.8517972318       22.1532756477
H                34.0694792660       25.3073768688       23.3642342128
H                32.5913378202       24.4340746827       23.8410991747
N                37.6165969041       23.4525645445       23.2231660446
C                38.4964236203       24.1560657509       22.3097052270
C                38.5690829094       25.6601968761       22.5829703963
O                38.5282504067       26.4881794116       21.6926246837
H                37.7724952178       22.4688961105       23.3845208814
H                39.5102924926       23.7576304412       22.4111272186
H                38.1665094671       24.0185274854       21.2729764231
N                38.7974759767       25.9770869506       23.8720208985
C                39.2508694061       27.2940967548       24.2601947616
C                40.7621797692       27.3698415507       23.9978147250
O                41.3746739995       26.3823608751       23.5970119975
C                38.9550000703       27.5177992373       25.7385657742
H                39.0221076201       25.2315086903       24.5148194603
H                38.7313759286       28.0203527261       23.6291614708
H                38.9218748205       28.5776294030       25.9703280829
H                37.9888065465       27.0885614336       25.9900198859
H                39.7220818893       27.0446105324       26.3477212134
N                41.5604383262       28.7696592047       14.1908709655
C                41.9622392645       27.3929504979       14.3180153327
C                41.2868444520       26.5974020528       13.1955319890
O                40.4673024018       27.1125264978       12.4475840952
C                41.4687690932       26.8418317988       15.6693077162
C                41.7677213372       27.8058569738       16.8163197247
C                41.0534569491       27.4215204498       18.1082220259
N                41.6959584299       26.3093679653       18.7653726790
C                42.0151610068       26.1997317807       20.0413240709
N                42.6222802300       25.0813202814       20.4557644081
N                41.8693915071       27.1904815057       20.9237337457
H                40.5748000608       28.9365425560       14.3827810070
H                43.0535766362       27.3423255126       14.2413240381
H                40.3852436780       26.7117112168       15.5857642938
H                41.9044910166       25.8559174412       15.8409453952
H                42.8429265647       27.8760506997       16.9836399292
H                41.4149171083       28.7977674548       16.5334891624
H                41.0403730894       28.2918337299       18.7624516630
H                40.0157806928       27.1562928443       17.8758627937
H                41.8901497205       25.4942880718       18.1774051517
H                42.6559061026       24.2991052715       19.8171644846
H                42.7114447964       24.9204507590       21.4470250779
H                41.2898746445       27.9756422352       20.6746119918
H                41.9039273752       26.9310574862       21.9088693262
N                36.8097532827       21.4349550446       14.5635494819
C                36.9829300366       20.3931451898       15.5519852759
C                35.7858502544       19.4316358119       15.5414729756
O                34.7464902044       19.6933466836       14.9528551724
C                37.1469692175       21.0204787902       16.9477620434
C                38.5699517943       21.5153657428       17.1907645100
S                38.7742151315       22.0816626791       18.9042960845
C                39.7371211479       20.7111208514       19.6222803385
H                36.0311050221       22.0764721993       14.6936503038
H                37.8874252265       19.8331517777       15.2776594806
H                36.4522947561       21.8658294107       17.0170621015
H                36.8780514251       20.2824854741       17.7084437752
H                39.3071341869       20.7275444845       17.0146106144
H                38.8125582535       22.3592294050       16.5389217446
H                40.0076013758       21.0043846979       20.6289848466
H                39.1408013533       19.8053876448       19.6410436507
H                40.6283016895       20.5507764944       19.0235134062
N                35.9715366644       18.3197817973       16.2563712112
C                35.0070568346       17.2639273967       16.4501146749
C                34.8440502168       17.0697870956       17.9567043649
O                35.8173285965       17.1218368586       18.6973433389
C                35.5479514347       15.9433908241       15.8049246590
O                36.9562960116       16.0180099400       15.7881380137
C                34.9884829829       15.8123200243       14.3888603548
H                36.8849894234       18.0979037811       16.6234930871
H                34.0625628993       17.5599342762       15.9875923687
H                35.2048426849       15.0908954146       16.4095012912
H                37.3851365804       15.1670882400       16.0278787543
H                35.3600819340       14.9009812579       13.9297548178
H                33.9015551764       15.7924620526       14.4179595579
H                35.3235663617       16.6689394487       13.8114378414
N                33.5928974062       16.8774692538       18.3929051919
C                33.2390098550       16.6445718616       19.7822310075
C                32.2541512678       15.4712384396       19.8300912472
O                31.7720429890       15.0138746950       18.7989872946
C                32.5449412157       17.8794637311       20.4017234265
C                33.2566083438       19.1863993397       20.1635653179
C                34.6381613683       19.2956300625       20.1884667902
C                32.5216483427       20.3462567674       19.9451461052
C                35.2706263093       20.4968966523       19.9312148470
C                33.1394972322       21.5576414841       19.7110204787
C                34.5271378325       21.6369423271       19.6647212024
O                35.1120708431       22.8289854872       19.3784186171
H                32.8489625844       16.6707529066       17.7367713487
H                34.1452117504       16.3989890351       20.3430977799
H                31.5339642344       17.9495050416       19.9949734330
H                32.4711768466       17.7002423786       21.4768983966
H                35.2443709311       18.4273046236       20.3788501751
H                31.4445142265       20.2952373690       19.9658547800
H                36.3505002922       20.5496002960       19.9189012114
H                32.5587863662       22.4510637204       19.5585616296
H                36.0754939048       22.7289207833       19.3537304408
N                31.9110821650       15.0282237406       21.0479450402
C                30.8100311290       14.1074518775       21.2041674766
C                30.0180013869       14.4598289688       22.4602466819
O                30.5254124877       15.0951149974       23.3760385353
C                31.2858438563       12.6426226278       21.3266457117
O                31.7305060401       12.3014928915       22.6138680191
H                32.3114725220       15.4334123586       21.8861626786
H                30.1853364125       14.1878440223       20.3068752233
H                30.4452344674       11.9791169084       21.1088289094
H                32.0742017642       12.4748955466       20.5801959640
H                32.3951962350       12.9459124439       22.9147266377
N                28.7573979710       14.0256285150       22.4617884334
C                27.8729548624       14.0869943280       23.6085076214
C                27.3301250573       12.6769342887       23.8380880792
O                26.7629685934       12.0735112431       22.9317435873
C                26.6844288918       15.0302388898       23.3267373764
C                27.1630123252       16.4773164002       23.1591703983
C                25.6750510895       14.9146927743       24.4657150193
C                26.2582813328       17.2881982657       22.2389764507
H                28.3992180322       13.4993637014       21.6757455400
H                28.4376447664       14.4342958163       24.4782544527
H                26.2216010133       14.6884746573       22.3926317285
H                27.2042243956       16.9319375338       24.1504345592
H                28.1749787306       16.4794511990       22.7507643765
H                24.8855031136       15.6535297760       24.3594891051
H                25.2256570626       13.9231529357       24.4796481589
H                26.1741072084       15.0700974732       25.4214619179
H                26.5730398121       18.3289263944       22.2140697944
H                26.3058231300       16.8892040234       21.2286840734
H                25.2283171770       17.2421554243       22.5791712501
N                32.6606566362       21.6310106609       14.4009642787
C                32.3597479794       22.8891087951       15.0443831586
C                33.5142880691       23.8627026733       14.8229369393
O                34.6867578621       23.4941281327       14.8207768289
C                32.0731159983       22.6767652474       16.5451158940
C                31.6358036928       23.9874198302       17.1874828332
C                30.9876073913       21.6136632278       16.7045154507
H                33.5116114912       21.1459986948       14.6608939859
H                31.4564431073       23.2733700671       14.5563678929
H                32.9992118559       22.3349117499       17.0209232503
H                31.3832353556       23.8129867552       18.2287701418
H                32.4361650227       24.7213034556       17.1446307824
H                30.7582385449       24.3834142857       16.6811714625
H                30.6917892710       21.5415250630       17.7458759881
H                30.1182248565       21.8881255379       16.1103506972
H                31.3412404828       20.6438970695       16.3650910637
N                30.1973432565       27.1420934414       18.8621386785
C                30.1321970099       26.2898746898       20.0402029282
C                28.6960367863       26.2129196764       20.5758583405
O                28.1581506266       25.1449257352       20.8095283051
C                31.1237678598       26.7686288721       21.1365539686
C                31.2886876693       28.2887173095       21.1665294727
C                30.6932978719       26.2872710621       22.5257022149
H                31.0655391065       27.6260912313       18.6943587546
H                30.3916977339       25.2624049953       19.7524633584
H                32.0962486963       26.3258785846       20.8970884631
H                31.7891405465       28.5685941393       22.0896695702
H                31.9156502997       28.6559253258       20.3573503673
H                30.3210540177       28.7809871520       21.1246048247
H                31.5206515762       26.4389536583       23.2147448787
H                29.8418472052       26.8666944009       22.8731165871
H                30.4245340235       25.2342139119       22.4995160141
N                25.9743659476       23.0449374176       20.1188584546
C                25.5483667859       22.3122749975       21.2985281305
C                24.0199966793       22.3304361588       21.3556112340
O                23.3583992617       21.3020659360       21.4480382009
C                26.1819002877       22.8935025182       22.5705361992
C                25.4119397093       22.4343194433       23.8078304441
C                27.6482684459       22.4762321619       22.6607881462
H                26.5945545956       23.8379589023       20.2350322255
H                25.8315871361       21.2597040374       21.1712689395
H                26.1245127424       23.9821015460       22.4915893300
H                25.9515898775       22.7235936721       24.7034381597
H                24.4203137314       22.8764398687       23.8286749945
H                25.3036418167       21.3527281456       23.7971621426
H                28.0856563734       22.8682169607       23.5746159846
H                27.7311176670       21.3918391038       22.6691952347
H                28.2048309752       22.8661683372       21.8133701920
N                24.5140407340       15.7901000395       31.4767640734
C                24.8810944863       15.9945415782       30.0814769759
C                26.3841229998       16.2780128360       30.0202450799
O                26.8247939753       17.2726737225       30.5801835085
C                24.0893262117       17.2254660167       29.5956325355
C                24.0974188867       17.4885339072       28.1145218567
C                25.0443109073       18.3149919337       27.5254039151
C                23.0785342975       16.9782459670       27.3186639559
C                24.9596392715       18.6436900575       26.1850683129
C                22.9850838064       17.2914499102       25.9796074860
C                23.9212470842       18.1466334222       25.4073402672
O                23.7668278224       18.4783384608       24.0967051584
H                24.3282263912       16.6339843021       32.0021845895
H                24.6117779974       15.0973352787       29.5194518922
H                23.0537878767       17.0878744129       29.9123439441
H                24.5046204781       18.0962962447       30.1077565833
H                25.8423907799       18.7366414101       28.1173657088
H                22.3270424923       16.3424600397       27.7570215401
H                25.6856746114       19.3123646771       25.7476009385
H                22.1753433497       16.9120074076       25.3758282756
H                24.4709360358       19.0793602639       23.8187758286
N                27.1482499575       15.3601597842       29.4125016158
C                28.5721591702       15.5467174914       29.2367177682
C                28.8734719717       15.8440194361       27.7726340634
O                28.2109609875       15.3676803724       26.8583106465
C                29.3751439605       14.2900234143       29.6634865796
O                29.0936887421       13.9699325134       31.0124575096
C                30.8760308849       14.5472347154       29.5519053660
H                26.7259554902       14.6202002889       28.8696261665
H                28.8698138631       16.3874351451       29.8710918967
H                29.0954617426       13.4557048964       29.0022255750
H                28.2421506632       13.5235725534       31.0588418564
H                31.4089623536       13.7020815674       29.9764772377
H                31.1672796615       14.6455204050       28.5110010620
H                31.1455019782       15.4504722716       30.0946172505
N                29.9125438369       16.6634233571       27.5888604535
C                30.5018277811       16.9051811218       26.2910901828
C                31.9939274178       16.5985121547       26.3930981549
O                32.6407591600       16.9370092468       27.3795991240
C                30.3268532548       18.3713325436       25.8384764759
C                30.7471926617       18.5108498293       24.3777044792
C                28.8807193043       18.8181936579       26.0318486942
H                30.3869595495       17.0662912207       28.3894219991
H                30.0161455752       16.2371015756       25.5738457037
H                30.9739769493       18.9926677868       26.4676385503
H                30.6266624175       19.5402989488       24.0544832303
H                31.7886532175       18.2297192379       24.2379397103
H                30.1334758756       17.8683144018       23.7503530400
H                28.7762715090       19.8577244182       25.7357211363
H                28.2164231322       18.2037182725       25.4299461068
H                28.5833858579       18.7197065049       27.0730705926
N                32.5131230694       15.9599432376       25.3393101076
C                33.9235002294       15.6838239312       25.2232890087
C                34.4733486254       16.2629620350       23.9133120409
O                33.7738375518       16.4033986415       22.9190227222
C                34.2235884498       14.1720778202       25.2213763389
O                33.9445461507       13.6352996342       23.9409541971
H                31.9306519835       15.7204795974       24.5410022476
H                34.4178937981       16.1517038710       26.0818707836
H                35.2805653123       14.0337651532       25.4702272005
H                33.6004459669       13.6818782816       25.9813017972
H                34.4032568380       12.7913521352       23.8532397445
N                35.7645697350       16.5810582855       23.9721035676
C                36.5224660719       17.0884231164       22.8486007253
C                37.2890946853       15.9357816362       22.1815578391
O                37.6440764333       14.9542578789       22.8208326344
C                37.4761497704       18.1953651132       23.3568403733
C                38.7120418279       17.6153203430       24.0395024812
C                37.9044186614       19.1228509018       22.2282115748
H                36.2610407193       16.4996794951       24.8468257614
H                35.7975358355       17.5050477718       22.1410218531
H                36.9048906666       18.7682417244       24.0984737365
H                39.3098306474       18.4219799931       24.4576803487
H                38.4383342785       16.9375643146       24.8432016120
H                39.3252544149       17.0727359021       23.3225119979
H                38.4816274983       19.9452536703       22.6430656388
H                38.5308288399       18.5786374932       21.5239119094
H                37.0342077639       19.5231756402       21.7186909932
N                37.5354091648       16.0754704860       20.8678378982
C                38.4703166206       15.1898832437       20.2044549381
C                39.8896112778       15.5597156696       20.6436147041
O                40.1820103525       16.6975293664       21.0013195825
C                38.3478978852       15.2721997782       18.6875948469
C                38.7493131776       13.9574781346       17.9591644878
O                39.4139720137       13.1194472366       18.5934085571
O                38.3540720598       13.8472457638       16.7770096418
H                37.2098352528       16.8749635022       20.3481543092
H                38.2566138881       14.1634574211       20.5317150526
H                37.3189137910       15.5012943905       18.4122684324
H                38.9772835550       16.0712099223       18.2798651443
N                40.7513145559       14.5349491448       20.6668089686
C                42.1382296165       14.7904959576       20.9982198964
C                42.8387464231       15.5224540388       19.8469853229
O                42.6145376220       15.2872767766       18.6682734568
C                42.8893541358       13.5014976053       21.3122366903
H                40.5042844642       13.7377423791       20.0810257845
H                42.1190557984       15.4505540945       21.8734790217
H                43.9028624367       13.7499869425       21.6156142685
H                42.3842443183       12.9769410483       22.1176488566
H                42.8976571203       12.8694730154       20.4271988084
N                43.5900291835       24.0654490051       26.6928677775
C                42.2720219157       24.0571583900       26.0827847821
C                41.2808959807       23.2992360146       26.9586491337
O                41.6153521045       22.3592215995       27.6648940186
C                42.2576644322       23.4904164344       24.6428768546
C                42.4745762750       22.0083542246       24.4939729529
C                43.5885669617       21.3692484988       25.0215615896
C                41.6056219886       21.2503448749       23.7145728369
C                43.8363091805       20.0306902783       24.7745820194
C                41.8603021494       19.9229275664       23.4303993730
C                42.9912348177       19.3012648238       23.9487242981
O                43.2577202483       18.0106735780       23.6035698917
H                43.8734238312       23.2179796270       27.1771128167
H                41.9632380878       25.1042714989       26.0127348448
H                41.3031527275       23.7541168508       24.1832307643
H                43.0233382703       24.0395217095       24.0869978648
H                44.2956316851       21.9182899907       25.6185249358
H                40.7233070585       21.7072590421       23.2923551393
H                44.7227993557       19.5674776184       25.1860655998
H                41.1992070519       19.3636221271       22.7896679399
H                44.0573595072       17.7181829484       24.0627712746
N                40.0186744688       23.7636118114       26.9417467409
C                39.0017841124       23.0704724381       27.7167718486
C                38.6695163577       21.7479679236       27.0150166227
O                38.6067819944       21.6457647384       25.8011219300
C                37.7633649594       23.9298855857       28.0227704300
C                38.2288377980       25.2448792821       28.6766120298
C                36.8137663665       23.1287371228       28.9122569555
C                37.1526887711       25.9581010963       29.4868989675
H                39.7316924170       24.4551676863       26.2651617712
H                39.4868437633       22.8152545248       28.6666705955
H                37.2233670639       24.1578739863       27.0963412076
H                39.0780660554       25.0406832018       29.3277584871
H                38.5738794258       25.9160998157       27.8929630262
H                35.9175495739       23.7053543202       29.1097820382
H                36.4905490175       22.2235667716       28.4069534289
H                37.2764853928       22.8494650144       29.8559630995
H                37.5268834120       26.9200192274       29.8281777268
H                36.2642027828       26.1172684999       28.8812898517
H                36.8873466022       25.3792754136       30.3667484142
N                38.5180820349       20.7320796358       27.8758513706
C                38.4061832130       19.3488819855       27.4883855532
C                36.9696422879       18.8213686934       27.5481458081
O                36.4743389840       18.2076057689       26.6170277202
C                39.3228371124       18.5354607710       28.4327526078
O                39.3319190037       17.1614371347       28.1602441737
H                38.5210515701       20.9214935507       28.8719771949
H                38.7418469497       19.2602602280       26.4500989617
H                40.3305079041       18.9578931180       28.3723499933
H                38.9543568387       18.6662924684       29.4563292284
H                40.1170016543       16.9496902574       27.6413843878
N                36.3189343964       19.0705904018       28.6906336136
C                35.0009957180       18.5378912092       28.9436217629
C                34.2994537927       19.3795271600       30.0191503367
O                34.9085210731       20.1592069830       30.7369801674
C                35.0722792642       17.0685829507       29.4016131217
O                35.4382997973       17.0257289412       30.7608728527
H                36.7283657393       19.6067666538       29.4452003395
H                34.4294954594       18.5619960610       28.0089313829
H                34.0935292728       16.6035886143       29.2347345660
H                35.8194099569       16.5560546137       28.7805626991
H                35.4617784358       16.1052469792       31.0481289238
N                32.9867737988       19.1486894765       30.0797289214
C                32.0349917070       19.8972541600       30.8803487252
C                30.8022319593       19.0149400526       31.0899048189
O                30.5098380894       18.1296222727       30.2901974015
C                31.6859488602       21.2264806342       30.1554429026
C                31.0196501652       20.9681232596       28.8072353436
C                30.8294461071       22.1502940059       31.0133617089
H                32.5736850612       18.4720691210       29.4480273069
H                32.4889710179       20.1465414771       31.8443395082
H                32.6496216585       21.7175948707       29.9784410267
H                30.7895480404       21.9157461789       28.3265109632
H                31.6843190417       20.4019032001       28.1587343463
H                30.0942009290       20.4110548712       28.9332706813
H                30.7951713243       23.1362174161       30.5561619385
H                29.8156082055       21.7693151148       31.1049652048
H                31.2534901363       22.2532363549       32.0064156284
N                30.0862536907       19.2914266897       32.1841992198
C                28.8607515337       18.5968301328       32.5242759723
C                27.8723454529       19.6061183050       33.1052358473
O                28.2663623554       20.5057209892       33.8488471552
C                29.1110950897       17.4655522871       33.5277526315
H                30.4119086770       20.0122594388       32.8159034008
H                28.4574113021       18.1712609750       31.6026667381
H                28.1631535887       17.0473846870       33.8517333901
H                29.6911285339       16.6776765231       33.0527506653
H                29.6513639349       17.8317180225       34.3982360175
N                26.6009511115       19.4379606323       32.7349324046
C                25.5229864685       20.3115066163       33.1540239519
C                24.5781543484       19.5522384152       34.0999049707
O                24.4048424919       18.3423120982       33.9963376394
C                24.6748205151       20.8009575973       31.9734059239
C                25.3405929084       21.6523019315       30.9197515764
C                26.6925825294       21.9483249088       30.8612952856
C                24.5134499204       22.1425191207       29.9101229267
C                27.2083183634       22.7151248225       29.8271641803
C                25.0154771091       22.8926835223       28.8712353611
C                26.3756982565       23.1874412112       28.8229337322
O                26.8272930570       23.9423763846       27.7912877612
H                26.3831780585       18.6734100133       32.1038745702
H                25.9655472553       21.1587344016       33.6852072538
H                24.2563298390       19.9223686159       31.4730329857
H                23.8354804589       21.3682892704       32.3880378670
H                27.3764471467       21.5845396831       31.6107707362
H                23.4568032237       21.9258204747       29.9472999467
H                28.2660042465       22.9364793395       29.7963997270
H                24.3758483269       23.2445430288       28.0800201318
H                27.7813876780       24.0809310417       27.8577726887
N                30.5076264565       21.5648622345       35.9896310130
C                31.9116611911       21.2520173400       36.1142487542
C                32.6807979842       21.4889727924       34.8141952394
O                32.1610013532       21.3208820709       33.7244065787
C                32.1243748495       19.7788683094       36.5216856165
O                31.8216489879       19.6212794682       37.8825833080
H                29.9482333884       21.0257832366       35.3427981337
H                32.2905664478       21.9029436900       36.9096014843
H                31.4691049996       19.1483669268       35.9024753019
H                33.1651954876       19.5157226806       36.3010489611
H                32.3703577329       18.9179929418       38.2571240792
N                33.9671101260       21.8143888170       35.0039786552
C                34.9174874325       22.1599904565       33.9712681666
C                36.2583916819       21.4755251204       34.2669445593
O                36.7640566030       21.5491146399       35.3767629228
C                35.2404607218       23.6732385541       34.0504849514
C                34.1504210798       24.6097582187       33.6117348415
C                34.2578794693       25.2426656746       32.3804774964
C                33.0880566569       24.9542915533       34.4407373036
C                33.3710406955       26.2281457017       32.0036533979
C                32.1822782703       25.9312606888       34.0714952311
C                32.3390944682       26.6004205051       32.8593473315
O                31.4753197961       27.5935171860       32.5340649447
H                34.3250557098       21.9293444814       35.9427632441
H                34.4988667772       21.8798721360       33.0018558411
H                35.4949631618       23.8840453254       35.0925346209
H                36.1276413830       23.8635416745       33.4433087573
H                35.0635806373       24.9820811361       31.7111611043
H                32.9736646535       24.4711251193       35.4002982738
H                33.4981643504       26.7440452096       31.0643397274
H                31.3719732134       26.2077257390       34.7300299867
H                31.7799278504       28.0229074533       31.7132353613
N                36.8821342965       20.8962616436       33.2297415693
C                38.2685878659       20.4956814161       33.3110199640
C                38.9591238296       20.7868855475       31.9847640042
O                38.3616951286       20.7958468961       30.9118434596
C                38.4770523879       19.0003971446       33.7226574636
O                39.8007368444       18.5996885163       33.4778586433
C                37.5556844783       18.0537868502       32.9685224258
H                36.4145623488       20.7676905440       32.3397951310
H                38.7420641735       21.1174275829       34.0839749346
H                38.2469657798       18.9250925583       34.7988706040
H                40.4197841789       19.1318251534       34.0093892226
H                37.7483886164       17.0408608076       33.3125667496
H                36.5174462050       18.3076361443       33.1531805846
H                37.7521248222       18.1070470166       31.9019079962
H                32.9862510595       29.5490135971       26.3587888016
H                41.2542848317       28.2264368593       24.1529826490
H                42.0306374212       29.2744581545       14.7688768749
H                41.5128684103       25.6326752032       13.0605680084
H                37.5453627293       21.9530013451       14.5410378713
H                27.4358033515       12.2397488296       24.7312291500
H                32.0008486821       21.0423749239       14.5687779632
H                33.3278248487       24.8337416768       14.6735558128
H                30.0505028861       26.6472417020       18.1248736911
H                28.1784512854       27.0523993760       20.7413246007
H                26.4156982937       22.4905455773       19.5639932027
H                23.5285277012       23.2004965524       21.3174909628
H                23.7658100703       15.2918809329       31.5206798533
H                43.5162621021       16.2311452929       20.0437827088
H                44.2135858874       24.2049646617       26.0590599056
H                24.0886558063       20.0450728758       34.8192834328
H                30.1038977152       21.4569980084       36.7867310144
H                39.9397634510       20.9815806428       31.9637937224
