 420 
 
N                35.7151719921       39.6553760854       45.3894910853
C                35.4202728033       38.2647644209       45.6710073288
C                34.0295718991       37.9129128375       45.1369809228
O                33.8394215737       36.9120102204       44.4521399502
C                35.4506293690       37.9533542275       47.1693187235
C                36.8294080099       37.7835758026       47.7517147381
C                37.7523587705       36.9177136608       47.1756371952
C                37.1711396204       38.4370128120       48.9277617177
C                38.9986714396       36.7330631723       47.7485591325
C                38.4084634807       38.2371451935       49.5151165264
C                39.3291789467       37.3923254071       48.9206211944
H                35.9213201518       40.2814303047       46.1622030676
H                36.1318570320       37.6354606303       45.1202840358
H                34.9089498001       38.7401312274       47.6977302834
H                34.8975229283       37.0188098459       47.3096971516
H                37.4966496545       36.3854277578       46.2700120544
H                36.4542019560       39.1009232829       49.3879316527
H                39.7100588901       36.0671881700       47.2824444849
H                38.6493650137       38.7374953231       50.4403912646
H                40.2973231916       37.2387564128       49.3716857713
N                33.0546393893       38.7497112210       45.4914184659
C                31.6828759908       38.4927892591       45.0975602538
C                31.6325367402       38.1766895724       43.5978832409
O                30.9553915756       37.2647975195       43.1465981661
C                30.8200842775       39.7091963568       45.4389460515
C                29.3192746473       39.3993866360       45.4870176454
C                28.9574647330       38.7259414006       46.8093526332
C                28.5198274665       40.6901755497       45.3167830304
H                33.2173540814       39.5058215663       46.1514756392
H                31.3138120227       37.5985815511       45.6182962177
H                31.1356750014       40.0767938940       46.4186318997
H                31.0162387466       40.4899431040       44.7028596148
H                29.0759804678       38.7211563000       44.6634864247
H                27.8906418876       38.5288905403       46.8607838789
H                29.4809314089       37.7804274801       46.9258223045
H                29.2230683500       39.3708880234       47.6437291867
H                27.4550355335       40.4872373226       45.3892842569
H                28.7921147854       41.4042675864       46.0907863413
H                28.7203889237       41.1381610663       44.3474016608
N                34.1896693904       37.3187321693       41.4760861492
C                34.8563125383       36.0713345052       41.1529420309
C                33.8861582059       34.9010110009       41.3078518742
O                33.8317485441       33.9704166828       40.5124592276
C                36.0291524261       35.8361762077       42.0950187397
H                34.6386438700       37.9389171329       42.1403428285
H                35.2049934559       36.1023917709       40.1141752805
H                36.4189800346       34.8328194382       41.9488181145
H                36.8309138273       36.5419596323       41.8958393782
H                35.6930477169       35.9407309472       43.1233016343
N                33.1763317789       34.9564121336       42.4356747933
C                32.3149623691       33.8746956564       42.8584229783
C                31.1981080265       33.6694100700       41.8365049123
O                30.8493915684       32.5564817172       41.4745464920
C                31.7314775925       34.1557684801       44.2352710169
H                33.3106231169       35.7488614295       43.0545693621
H                32.8899350738       32.9379582970       42.8765330365
H                31.1504781354       33.2942233614       44.5535368846
H                32.5395547792       34.3242626749       44.9417998987
H                31.0970106242       35.0370506424       44.1965800164
N                30.6291915594       34.7997117260       41.4083430530
C                29.5859172174       34.8109462700       40.4027930788
C                30.0932184204       34.1149271949       39.1422688485
O                29.4015879434       33.3301129463       38.4959698083
C                29.1592351698       36.2578266694       40.0839013881
C                28.3584142617       36.8818734840       41.2365993637
C                28.3904668176       36.3364130274       38.7662786552
C                26.9811510093       36.2730096162       41.4792056530
H                30.9284088814       35.6799597298       41.8109465964
H                28.7245267148       34.2285299160       40.7565141325
H                30.0822802069       36.8352776697       39.9733791153
H                28.9467222807       36.8098224929       42.1515351209
H                28.2300603257       37.9426470637       41.0113681496
H                28.0477446243       37.3545823313       38.5978393142
H                29.0257237389       36.0514125573       37.9312310979
H                27.5306720189       35.6729293670       38.7882249000
H                26.5239981040       36.7391124515       42.3489430042
H                26.3237576828       36.4335577163       40.6294428422
H                27.0406598795       35.2048261472       41.6728760824
N                32.4595329822       31.9365510051       38.7906811270
C                32.6017391128       30.5168595066       39.0485319149
C                31.2268430713       29.8424147910       39.0486378578
O                31.0079444304       28.8394789405       38.3727291650
C                33.3160112515       30.2954212899       40.3783461044
C                34.8104482926       30.6416641023       40.3354785660
C                35.3570277214       30.6915519976       41.7609135609
C                35.5943246142       29.6201709640       39.5152737911
H                32.8479520318       32.5804542298       39.4746842488
H                33.1648950363       30.0545343637       38.2276423531
H                32.8182997706       30.9099934116       41.1307090515
H                33.2037403099       29.2468955728       40.6558169728
H                34.9327693734       31.6307154645       39.8832837800
H                36.4228360864       30.9016973632       41.7497419968
H                34.8613524441       31.4721984490       42.3323504653
H                35.2036233440       29.7366262899       42.2571153317
H                36.6554568863       29.8521944921       39.5370970870
H                35.4537128297       28.6206690517       39.9205140923
H                35.2795641978       29.6112557441       38.4748217771
N                30.2981511122       30.4212907376       39.8063250946
C                28.9512913498       29.8839262542       39.8510958915
C                28.5040167866       29.5413196763       38.4356759057
O                28.0191355864       28.4568534957       38.1513156921
C                27.9303419647       30.8752825257       40.4303768932
C                27.4544034765       30.5976864818       41.8638224127
C                27.0419548900       29.1388083965       42.0620604624
C                28.4851240002       31.0174228881       42.9038807882
H                30.5107676501       31.2264966750       40.3895651017
H                28.9553040352       28.9440499679       40.4130335821
H                28.3609027406       31.8749605629       40.3795881671
H                27.0448658012       30.8628588082       39.7906742332
H                26.5582976434       31.2129088591       41.9987281251
H                26.3753115845       29.0583852566       42.9169468900
H                26.5193719004       28.7691924814       41.1837732292
H                27.9040065867       28.5020800860       42.2519525961
H                28.1452635957       30.7491235909       43.9005973957
H                29.4411826218       30.5384084408       42.7189524205
H                28.6455401816       32.0909324364       42.8774576114
N                30.0463399824       26.6420685713       36.5772102259
C                29.5636066424       25.3536524799       37.0314942449
C                28.1025771085       25.1197465331       36.6330201158
O                27.7402410855       24.0330059272       36.1827602778
C                29.7421036738       25.2602484295       38.5471234498
C                31.1735561067       25.4703648310       38.9687414921
C                32.2202480348       24.8186500717       38.3240265146
C                31.4675967010       26.2956370170       40.0462133604
C                33.5286901936       25.0051155694       38.7344465140
C                32.7723919425       26.4628557259       40.4740080236
C                33.8086281300       25.8271035486       39.8131428816
H                30.3017887326       27.3325122423       37.2747139324
H                30.1318370675       24.5619109112       36.5237531788
H                29.1065842582       26.0113794639       39.0196059485
H                29.4097008440       24.2729342944       38.8791496033
H                32.0168104009       24.1494640678       37.5012037921
H                30.6675735334       26.8037476770       40.5623887757
H                34.3264735758       24.4964807520       38.2151003196
H                32.9747006404       27.0816320970       41.3347922304
H                34.8292791333       25.9539633237       40.1394043985
N                18.9945782333       27.8665151922       42.7682097555
C                20.3021149108       28.2465087671       43.2515608199
C                20.6746394722       29.6479954633       42.7774041216
O                21.2052243589       30.4503342587       43.5416916496
C                21.3804691884       27.2678372290       42.7600665166
O                21.2646104719       25.9892623444       43.3113619741
H                18.9099919550       26.9975710113       42.2480045600
H                20.2916771296       28.2558414866       44.3506835841
H                21.3345486374       27.2443729418       41.6629275434
H                22.3543734664       27.6530298784       43.0773984757
H                20.4348520096       25.5910525820       42.9920004986
N                18.8061192067       32.2100451243       44.6031331023
C                19.2997282625       32.1940678861       45.9663905494
C                20.5527445428       33.0507417599       46.1088271386
O                20.6757634953       33.8451770954       47.0351227325
C                19.5972295874       30.7516487984       46.3820111885
C                20.2752962117       30.6144476140       47.7507716366
C                19.4085682900       31.1732523481       48.8764570530
C                20.5956719465       29.1417928404       48.0012811746
H                18.6106518341       31.3156869046       44.1646133301
H                18.5423553565       32.6388345112       46.6254854491
H                18.6578455776       30.1953625438       46.3769299582
H                20.2494643374       30.3239243271       45.6190182773
H                21.2132286881       31.1792521435       47.7279258110
H                19.8644015073       30.9617072090       49.8403126976
H                19.3059652158       32.2511306181       48.7823640213
H                18.4198654934       30.7222154430       48.8554561188
H                21.1177290789       29.0243896746       48.9463755775
H                19.6784689335       28.5590457713       48.0385757377
H                21.2259651301       28.7485558006       47.2073230881
N                21.5163669906       32.8342380025       45.2126032598
C                22.7653228531       33.5525447246       45.3311484241
C                22.5263632472       35.0611443159       45.2988797651
O                23.0934125243       35.8077408562       46.0912402221
C                23.8020110540       33.1242252450       44.2716482883
O                23.4427973062       33.4893650226       42.9662888078
C                24.1100540833       31.6295741396       44.4035710310
H                21.3733638691       32.1814603028       44.4514795621
H                23.1897510080       33.3452162535       46.3245908050
H                24.7169082687       33.6969173126       44.4772743099
H                22.5322876220       33.2090801047       42.7580807157
H                24.8906812647       31.3625375105       43.6962004742
H                24.4457898503       31.4046881690       45.4116353742
H                23.2258469183       31.0396512810       44.1809770032
N                28.3779967840       37.0166264829       51.9746167241
C                29.4874492244       36.5042250390       51.1938545924
C                29.8113688128       35.0484061064       51.5206141348
O                29.9590758882       34.2143070436       50.6329381716
C                30.7258499005       37.3851027507       51.3971492619
C                31.9940905362       36.8497078022       50.7138184736
C                31.8270236487       36.7433603830       49.1991335071
C                33.1742582080       37.7638397496       51.0405728683
H                28.5861839958       37.5182194528       52.8313953277
H                29.1718262806       36.5196343303       50.1439682037
H                30.5035888301       38.3791301566       51.0064007068
H                30.9074588865       37.4722593419       52.4714273154
H                32.2030560948       35.8493430522       51.1101888905
H                32.7552653281       36.4076964782       48.7426654511
H                31.0539035668       36.0249198588       48.9413853037
H                31.5688277529       37.7104335451       48.7747739154
H                34.0955545573       37.3418088064       50.6482254202
H                33.0207179534       38.7399956295       50.5865317715
H                33.2828994486       37.8872939135       52.1150666647
N                29.9749826958       34.7464558014       52.8109183105
C                30.4354360666       33.4189096888       53.1792406489
C                29.5396637120       32.3390744722       52.5655520923
O                30.0488474131       31.3954220282       51.9584920839
C                30.6066233504       33.2549730937       54.6902516473
C                31.9738102961       33.7236537263       55.2079423997
C                32.2176852824       35.2034651776       54.9199496769
C                32.0494002015       33.4577063114       56.7105102450
H                29.7767201063       35.4160751211       53.5406238426
H                31.4095942940       33.2543384367       52.6935245187
H                29.8267921894       33.8041373018       55.2178165364
H                30.4892593439       32.1973391352       54.9343677715
H                32.7554744219       33.1370092316       54.7129991490
H                33.1525130250       35.5191258024       55.3758309037
H                32.2845584026       35.3876638703       53.8513455126
H                31.4116323659       35.8086342757       55.3322493831
H                33.0057885569       33.7822058641       57.1122816798
H                31.2545209824       33.9918131589       57.2280076871
H                31.9312087778       32.3976474006       56.9200702146
N                28.2158921482       32.4367917834       52.6912657245
C                27.3900988742       31.3919722156       52.0989469921
C                27.5379617584       31.3302755471       50.5889033605
O                27.5660328022       30.2446381886       50.0200759705
C                25.9607265061       31.7083075490       52.5460772836
C                26.1779139577       32.5212618521       53.8172607733
C                27.4002071021       33.3613533926       53.4566855532
H                27.7203185131       30.4183696304       52.4816822903
H                25.4620372437       32.3267208530       51.8008177061
H                25.3799824913       30.8044634343       52.7057194460
H                25.3208808426       33.1447576195       54.0539655367
H                26.4074358270       31.8721395276       54.6616764569
H                27.0976800804       34.2024711174       52.8224774534
H                27.9158676685       33.7419601909       54.3334288285
N                27.5848134522       32.4824459754       49.9139298932
C                27.8101262067       32.4450424353       48.4802044924
C                29.0555993359       31.6242514070       48.1666375648
O                29.0520197975       30.8043864226       47.2468654970
C                27.9172319633       33.8565441506       47.8785389969
C                26.5129647723       34.4613448236       47.7949392033
C                28.5832488674       33.7995243001       46.5041360538
C                26.5008330708       35.9460040935       47.4643489014
H                27.6120244906       33.3793041324       50.3780438157
H                26.9719958933       31.9105300204       48.0125696200
H                28.5333970285       34.4580417993       48.5535787239
H                25.9478272097       33.9168455042       47.0360358386
H                26.0218331842       34.3322020748       48.7582157986
H                28.5843813385       34.7790667446       46.0376023765
H                29.6167698322       33.4713290900       46.5779516371
H                28.0585397746       33.1051848593       45.8522573267
H                25.4735062844       36.2740409114       47.3409843519
H                26.9447609516       36.5109063704       48.2797483617
H                27.0438049542       36.1518482086       46.5470637850
N                30.1289640089       31.8742462050       48.9071013777
C                31.3717414581       31.1673891149       48.6614358647
C                31.1389832068       29.6619073409       48.8372986954
O                31.5583261215       28.8392040119       48.0272671856
C                32.4950479322       31.6915974803       49.5728182277
C                33.7435003724       32.0189237112       48.7965376804
C                34.3223847802       31.0696319102       47.9596093636
C                34.3351080817       33.2700701199       48.8906097059
C                35.4597037557       31.3612703451       47.2351026204
C                35.4823933188       33.5717698397       48.1776969743
C                36.0507386086       32.6175620980       47.3433874724
O                37.1744787296       32.8637399299       46.6164854196
H                30.1028561385       32.5923382802       49.6256222818
H                31.6533392896       31.3149582875       47.6084628462
H                32.1352763665       32.5889117491       50.0779226332
H                32.7197172518       30.9485696139       50.3414129538
H                33.8775590892       30.0895879097       47.8705283275
H                33.8993503178       34.0210108318       49.5324806743
H                35.9084131138       30.6292477735       46.5821480749
H                35.9419654989       34.5466877941       48.2695092240
H                37.5047594392       33.7525181927       46.8059953274
N                30.4421881893       29.3085753049       49.9165066229
C                30.1315363215       27.9107637109       50.1625916016
C                29.4065757587       27.3024804445       48.9542666654
O                29.7434280619       26.2191770162       48.4805950681
C                29.2731620448       27.7774452826       51.4125987812
H                30.1722124496       29.9997556609       50.6118007970
H                31.0669410259       27.3456360295       50.2758738507
H                29.0561213252       26.7301744414       51.6028159671
H                29.8027065245       28.1936122920       52.2658479964
H                28.3392038848       28.3133814440       51.2689435267
N                28.3736060554       28.0093342274       48.5005494493
C                27.5762987600       27.5557431840       47.3792367998
C                28.4731087909       27.3619108049       46.1577412951
O                28.3641004463       26.3799399163       45.4288385340
C                26.4378793616       28.5415035250       47.0648845728
C                25.6984738646       28.1038820443       45.8020738169
C                25.4568979616       28.6263498643       48.2321052839
H                28.1306842897       28.8942066309       48.9345423362
H                27.1563714385       26.5684426358       47.6160884418
H                26.8955245981       29.5214668275       46.8946394832
H                24.9164420065       28.8181163418       45.5622111474
H                26.3766881663       28.0336724728       44.9559023303
H                25.2408287649       27.1285950927       45.9497102804
H                24.6400194252       29.2939819829       47.9725289387
H                25.0414474460       27.6452813653       48.4460121851
H                25.9412282276       29.0055012694       49.1257725040
N                29.3506204532       28.3394742174       45.9431570263
C                30.2868615890       28.2973307667       44.8387916391
C                30.9686025457       26.9282588134       44.8155217145
O                31.0186870402       26.2337746123       43.8066184299
C                31.3481067063       29.4149575780       44.9747552244
O                30.7747387217       30.6966386126       45.0173277807
C                32.3049401197       29.3744439599       43.7901177436
H                29.3478002131       29.1517055312       46.5525483261
H                29.7514534875       28.4181700240       43.8872315227
H                31.9091397567       29.2292233824       45.9017812251
H                30.1473285971       30.7549991170       45.7599765137
H                33.0725556348       30.1305205115       43.9192146410
H                32.7709998582       28.3968096667       43.7075039794
H                31.7630258482       29.5890595490       42.8729424517
N                31.5326294233       26.5841953410       45.9771080142
C                32.2580493204       25.3391112513       46.1339572447
C                31.3351819098       24.1594906597       45.8221183009
O                31.6575518186       23.2690030522       45.0434780094
C                32.8421940697       25.2239046809       47.5507919208
C                33.5016854142       23.8590198236       47.7352905424
C                33.8536610301       26.3403139292       47.8041834113
H                31.4322285351       27.1830490960       46.7879520501
H                33.0647048345       25.3009905894       45.3875417812
H                32.0127266536       25.3214616159       48.2586244397
H                33.9082440883       23.7716807074       48.7388066114
H                32.7865956351       23.0555179279       47.5768389525
H                34.3107271629       23.7332968522       47.0199225374
H                34.3051176996       26.2086117591       48.7834273358
H                34.6415669833       26.3136241290       47.0555135704
H                33.3754018188       27.3151912280       47.7742600426
N                30.1749908123       24.1667516262       46.4818104191
C                29.2040138211       23.1107890515       46.2997141833
C                28.9414083096       22.8449071397       44.8114153685
O                28.9565226533       21.7123342915       44.3471788413
C                27.8926788745       23.4860666511       46.9957477637
O                27.0015787970       22.4086171646       46.8635073690
H                29.9555290459       24.9224733606       47.1252792263
H                29.5777253995       22.1666984781       46.7186552767
H                28.1097360204       23.6955873350       48.0531409360
H                27.4976949125       24.3933686620       46.5207936328
H                26.1593134163       22.6338778496       47.2798094665
N                28.6505431880       23.9350662137       44.1030405998
C                28.2885821816       23.8694976858       42.7012651639
C                29.4473667882       23.2770521451       41.8974477663
O                29.2793351333       22.3989110394       41.0599632820
C                27.9071997830       25.2610898795       42.1890076228
C                26.8748920169       25.2048631687       41.0730289067
S                25.2848136350       24.4479937868       41.5744218194
C                24.8676821389       25.4551800975       43.0344743503
H                28.6508907538       24.8493712103       44.5453781069
H                27.4385742716       23.1819225003       42.5861935100
H                27.5145903788       25.8415703668       43.0261985067
H                28.8025718963       25.7659396614       41.8217468540
H                26.6658081028       26.2051578299       40.6943491879
H                27.2201997035       24.5780859609       40.2511947444
H                23.8039037263       25.3251643115       43.2124352533
H                25.4235939269       25.0990743532       43.8965375712
H                25.0959313055       26.4978831689       42.8375636009
N                30.6431474861       23.7975026542       42.1839541090
C                31.8439478827       23.2818010024       41.5675145459
C                31.9299703269       21.7634461089       41.6952389503
O                32.1970818328       21.0483942126       40.7343031809
H                30.7332419668       24.5627541677       42.8442063741
H                31.8726985070       23.5240547333       40.5012869858
H                32.7056306817       23.7278738003       42.0623372699
N                31.7358203368       21.3077206108       42.9304482748
C                31.8588889996       19.9039435840       43.2634090454
C                30.8083648084       19.0796754862       42.5138837067
O                31.0960853356       18.0207935490       41.9629404031
C                31.7382163353       19.7100507097       44.7785450368
C                32.5348122534       18.5012505968       45.2884288688
C                34.0263936399       18.8274098073       45.3532268083
C                32.0336703526       18.0855278655       46.6702410400
H                31.5590220977       21.9612003387       43.6869367318
H                32.8354764050       19.5486803121       42.9087040250
H                32.1110155573       20.6129138597       45.2667583729
H                30.6830756101       19.6051007039       45.0363516248
H                32.3802872062       17.6683752203       44.5939603398
H                34.5882630198       17.9613897164       45.6926395280
H                34.4104011559       19.1143317519       44.3776488088
H                34.1995744170       19.6460514648       46.0482478127
H                32.6120326112       17.2438695737       47.0417372566
H                32.1345864791       18.9098941599       47.3719333036
H                30.9885278742       17.7896252408       46.6273872467
N                29.5781326585       19.5899432785       42.5245319427
C                28.4689043711       18.9032488645       41.8878653361
C                28.7777758939       18.7286760768       40.3978332797
O                28.6677174796       17.6459429635       39.8282595510
C                27.1536096873       19.6627649001       42.1330830445
C                25.9775536586       18.7541229833       42.3157494112
C                25.9128441837       17.6669864805       43.1420514002
C                24.6858204681       18.8767592742       41.7131086719
N                24.6694076965       17.1045340379       43.0923084998
C                23.8963569823       17.8165040507       42.2248421467
C                24.1084032497       19.7712809112       40.8107045336
C                22.5702517133       17.6359674400       41.8508419552
C                22.7933381018       19.5882758831       40.4467072522
C                22.0311894313       18.5324882396       40.9555417704
H                29.3839058644       20.4388072200       43.0486723872
H                28.4032646690       17.8884256846       42.3000920469
H                27.2861583975       20.2566834973       43.0434214732
H                26.9653864914       20.3488924514       41.3068115807
H                26.6679319181       17.2534069875       43.7831226774
H                24.3864306784       16.2738670809       43.5823986432
H                24.6848261908       20.5897873417       40.4077891458
H                21.9866604777       16.8203650807       42.2504189251
H                22.3313402774       20.2671308027       39.7462487304
H                21.0065849969       18.4158557015       40.6340255387
H                36.4397179847       39.7072280558       44.8581301178
H                32.1653353467       38.7248683577       42.9531928778
H                34.0908342558       37.8091396886       40.7279337042
H                31.0209551815       34.2906994899       38.8130142321
H                32.8650009804       32.1429494263       38.0141533463
H                28.6034075467       30.2147238507       37.7031130792
H                30.7894003260       26.5271220830       36.0825905431
H                27.4320326719       25.8541911983       36.7377158287
H                18.4314096020       27.7764211080       43.4644310914
H                20.4873517914       29.9230499610       41.8343938630
H                18.0305055621       32.6653587237       44.5697714384
H                21.9002214221       35.4539037498       44.6253172648
H                27.9022840595       37.5958981614       51.4764784639
H                29.0804903594       19.5119499890       39.8548361058
