500
Properties=species:S:1:pos:R:3 pbc="F F F"
N      36.35700000      27.96700000      21.63800000 
C      35.87100000      29.24200000      21.21300000 
C      36.22300000      30.30800000      22.22400000 
O      36.69100000      31.38900000      21.87500000 
C      34.36700000      29.16600000      21.01800000 
C      33.71100000      30.49900000      20.71000000 
C      34.32600000      31.16200000      19.47200000 
C      32.22600000      30.30000000      20.50400000 
H      35.72100000      27.21400000      21.76700000 
H      36.36500000      29.53800000      20.28900000 
H      34.17100000      28.46800000      20.21700000 
H      33.93800000      28.75300000      21.92300000 
H      33.85300000      31.15900000      21.55100000 
H      33.80600000      32.07800000      19.25800000 
H      35.35900000      31.37700000      19.61300000 
H      34.21200000      30.50300000      18.61500000 
H      31.73300000      31.22800000      20.33500000 
H      32.04800000      29.64600000      19.65000000 
H      31.77500000      29.82600000      21.38200000 
N      38.57500000      33.47900000      21.38400000 
C      37.98900000      34.78500000      21.38000000 
C      38.86300000      35.76900000      22.11100000 
O      38.83400000      36.97900000      21.78200000 
C      36.62700000      34.69700000      22.08300000 
H      38.03800000      32.69300000      21.70900000 
H      37.87500000      35.15200000      20.39500000 
H      36.17500000      35.67600000      22.11900000 
H      35.99000000      34.03100000      21.53600000 
H      36.75200000      34.32400000      23.08400000 
N      39.63300000      35.34000000      23.07400000 
C      40.44900000      36.26200000      23.81800000 
C      41.52500000      36.89900000      22.97300000 
O      42.13700000      37.87800000      23.42900000 
C      41.04100000      35.59700000      25.03900000 
C      40.00000000      35.25700000      26.09500000 
C      40.69000000      34.56700000      27.26300000 
C      39.27100000      36.49700000      26.58100000 
H      39.66900000      34.37400000      23.31200000 
H      39.83700000      37.10300000      24.12300000 
H      41.55700000      34.70600000      24.73300000 
H      41.77100000      36.27500000      25.47700000 
H      39.28600000      34.57400000      25.67300000 
H      39.98800000      34.29800000      28.02200000 
H      41.20900000      33.67700000      26.93000000 
H      41.43000000      35.24200000      27.69900000 
H      38.62200000      36.25200000      27.41600000 
H      39.97900000      37.24600000      26.91500000 
H      38.65000000      36.93600000      25.81300000 
N      40.87800000      38.42300000      20.07900000 
C      40.29700000      39.34500000      19.15100000 
C      40.38600000      40.80000000      19.55700000 
O      40.40000000      41.15800000      20.76000000 
C      38.82700000      39.01300000      18.94400000 
C      38.66900000      37.88100000      17.96200000 
O      38.54000000      36.71500000      18.30900000 
N      38.71200000      38.24900000      16.68600000 
H      40.26700000      37.88800000      20.67500000 
H      40.84200000      39.24900000      18.20400000 
H      38.39100000      38.72000000      19.89500000 
H      38.31700000      39.87200000      18.57800000 
H      38.65000000      37.56500000      15.96900000 
H      38.80900000      39.21100000      16.41000000 
N      40.35100000      41.66000000      18.55600000 
C      40.36200000      43.08200000      18.78000000 
C      38.93000000      43.57700000      18.91700000 
O      38.31700000      44.01600000      18.01900000 
C      41.06800000      43.80900000      17.65300000 
C      42.57200000      43.61200000      17.75100000 
C      43.15700000      44.54700000      18.77000000 
O      42.73500000      45.70900000      18.90600000 
N      44.17900000      44.07900000      19.48900000 
H      40.31900000      41.34000000      17.60800000 
H      40.88700000      43.26600000      19.71100000 
H      40.70300000      43.42100000      16.70600000 
H      40.84500000      44.84600000      17.68700000 
H      42.81400000      42.58700000      18.00300000 
H      43.04100000      43.83700000      16.80700000 
H      44.50100000      43.13800000      19.39800000 
H      44.63500000      44.67500000      20.14100000 
N      38.41300000      43.48200000      20.16700000 
C      37.03000000      43.81000000      20.40500000 
C      36.75800000      45.27800000      20.31700000 
O      35.57800000      45.67700000      20.29700000 
C      36.57600000      43.24500000      21.74300000 
C      36.50400000      41.75400000      21.68900000 
C      35.60400000      41.13300000      20.83300000 
C      37.34100000      40.97600000      22.46800000 
C      35.56100000      39.76000000      20.76800000 
C      37.27800000      39.58900000      22.39200000 
C      36.36800000      38.99700000      21.53400000 
H      38.95400000      43.06400000      20.88300000 
H      36.43600000      43.38100000      19.62800000 
H      37.26200000      43.56400000      22.51500000 
H      35.61400000      43.66300000      21.96000000 
H      34.96100000      41.73600000      20.22300000 
H      38.04900000      41.44700000      23.12200000 
H      34.85400000      39.30200000      20.08100000 
H      37.95300000      38.99000000      22.96900000 
H      36.35900000      37.91800000      21.46700000 
N      37.78300000      46.11600000      20.15400000 
C      37.55000000      47.48200000      19.77700000 
C      36.83000000      47.53000000      18.44400000 
O      36.11300000      48.47700000      18.15900000 
C      38.89200000      48.18100000      19.65300000 
C      39.60300000      48.32400000      20.97800000 
C      38.95200000      49.35100000      21.86600000 
O      38.16100000      49.04300000      22.74400000 
N      39.25900000      50.62900000      21.58500000 
H      38.70400000      45.76600000      20.22600000 
H      36.92000000      47.96500000      20.49100000 
H      39.51100000      47.61700000      18.97200000 
H      38.73100000      49.16500000      19.20900000 
H      39.59600000      47.38900000      21.52500000 
H      40.64500000      48.60400000      20.80400000 
H      39.90900000      50.88300000      20.88300000 
H      38.83500000      51.34200000      22.14500000 
N      37.06200000      46.52800000      17.60100000 
C      36.50300000      46.52500000      16.29200000 
C      35.10100000      45.96400000      16.30600000 
O      34.76300000      44.96800000      16.93600000 
C      37.33600000      45.72000000      15.29800000 
O      37.20800000      44.31100000      15.51300000 
C      38.78800000      46.13500000      15.32300000 
H      37.60200000      45.71800000      17.90300000 
H      36.47000000      47.53100000      15.94900000 
H      36.91100000      45.90200000      14.31800000 
H      37.63900000      44.02100000      16.29700000 
H      39.32300000      45.61100000      14.54700000 
H      38.87400000      47.20400000      15.14600000 
H      39.23100000      45.90600000      16.26600000 
N      34.26000000      46.59800000      15.48500000 
C      32.91700000      46.09800000      15.31700000 
C      32.94500000      44.70800000      14.75700000 
O      32.11900000      43.87700000      15.09400000 
C      32.16300000      47.02600000      14.38700000 
C      30.72800000      46.56700000      14.17000000 
C      29.98700000      46.76200000      15.45800000 
O      29.69700000      47.90300000      15.83400000 
N      29.70700000      45.67800000      16.18600000 
H      34.52300000      47.43500000      15.03000000 
H      32.42500000      46.04000000      16.26800000 
H      32.17000000      48.02000000      14.79800000 
H      32.68400000      47.05700000      13.41800000 
H      30.25600000      47.19400000      13.43000000 
H      30.68900000      45.55200000      13.84000000 
H      29.96900000      44.75900000      15.87000000 
H      29.30100000      45.78300000      17.07100000 
N      33.87600000      44.45800000      13.84000000 
C      33.92200000      43.17400000      13.19700000 
C      34.13800000      42.09600000      14.22400000 
O      33.45700000      41.06100000      14.20300000 
C      35.05300000      43.15600000      12.17300000 
C      35.10400000      41.84800000      11.42500000 
C      36.18100000      41.85800000      10.41900000 
O      36.35000000      42.84000000       9.63600000 
N      37.00000000      40.78400000      10.36200000 
H      34.52000000      45.16000000      13.57200000 
H      32.98800000      42.95600000      12.72100000 
H      34.88600000      43.96700000      11.48000000 
H      35.98500000      43.34400000      12.68100000 
H      35.23100000      41.01600000      12.10300000 
H      34.16300000      41.69500000      10.90200000 
H      36.86300000      40.03100000      10.99400000 
H      37.71400000      40.74600000       9.71200000 
N      35.11000000      42.27500000      15.12800000 
C      35.34400000      41.24600000      16.08200000 
C      34.14800000      41.06500000      16.95400000 
O      33.76200000      39.90300000      17.29100000 
C      36.53600000      41.58900000      16.95400000 
H      35.66000000      43.10000000      15.14000000 
H      35.50600000      40.29700000      15.58500000 
H      36.65700000      40.84800000      17.72000000 
H      37.43400000      41.63100000      16.35700000 
H      36.38500000      42.55400000      17.41900000 
N      33.51000000      42.11900000      17.40000000 
C      32.36200000      41.98200000      18.24800000 
C      31.31800000      41.17400000      17.54900000 
O      30.72100000      40.21500000      18.12000000 
C      31.80400000      43.33200000      18.65300000 
C      32.77400000      44.08800000      19.55600000 
C      32.09300000      45.23000000      20.30000000 
N      31.54500000      46.25000000      19.40700000 
C      32.29400000      47.18300000      18.80100000 
N      33.57200000      47.22800000      18.96500000 
N      31.69200000      48.05400000      18.02200000 
H      33.82800000      43.05300000      17.13000000 
H      32.65200000      41.41100000      19.13500000 
H      31.59400000      43.90200000      17.77900000 
H      30.86800000      43.16300000      19.18600000 
H      33.14500000      43.40600000      20.32600000 
H      33.60400000      44.43400000      19.00700000 
H      31.26200000      44.86500000      20.86100000 
H      32.78700000      45.68800000      20.97900000 
H      30.57100000      46.33800000      19.31400000 
H      34.10800000      46.55100000      19.50300000 
H      34.14600000      47.93300000      18.51700000 
H      30.68900000      48.04000000      17.89500000 
H      32.21600000      48.72700000      17.51100000 
N      31.00900000      41.53400000      16.31700000 
C      29.97100000      40.86800000      15.59700000 
C      30.28300000      39.42100000      15.38900000 
O      29.45700000      38.52100000      15.60900000 
C      29.78500000      41.56700000      14.26600000 
O      29.27100000      42.86500000      14.58300000 
C      28.83500000      40.83600000      13.34600000 
H      31.46500000      42.30900000      15.89600000 
H      29.03500000      40.90500000      16.14100000 
H      30.75400000      41.67100000      13.79800000 
H      29.43600000      43.49000000      13.89000000 
H      28.66600000      41.43200000      12.45400000 
H      29.24200000      39.88500000      13.04100000 
H      27.89000000      40.67100000      13.83900000 
N      31.50500000      39.13500000      14.91200000 
C      31.87500000      37.78900000      14.61500000 
C      31.81800000      36.95100000      15.86700000 
O      31.27500000      35.82700000      15.83200000 
C      33.26400000      37.73600000      13.99800000 
C      33.80800000      36.32900000      13.96200000 
C      33.22500000      38.31800000      12.58700000 
H      32.16900000      39.87700000      14.76600000 
H      31.15600000      37.35800000      13.92400000 
H      33.90600000      38.36300000      14.61200000 
H      34.75600000      36.31000000      13.46800000 
H      33.95400000      35.93200000      14.98000000 
H      33.13200000      35.67300000      13.45200000 
H      34.21400000      38.34500000      12.17300000 
H      32.60500000      37.67800000      11.95900000 
H      32.82000000      39.31300000      12.58200000 
N      32.39400000      37.40800000      16.92200000 
C      32.49000000      36.56400000      18.09800000 
C      31.11700000      36.36700000      18.69800000 
O      30.79700000      35.26200000      19.15800000 
C      33.50500000      37.11500000      19.08900000 
C      33.52100000      36.26300000      20.34100000 
C      34.87700000      37.12600000      18.44300000 
H      32.82000000      38.32100000      16.95700000 
H      32.81600000      35.58800000      17.79300000 
H      33.20700000      38.13100000      19.34200000 
H      34.24400000      36.67500000      21.05100000 
H      32.56800000      36.23400000      20.82400000 
H      33.81800000      35.26400000      20.10300000 
H      35.62600000      37.42200000      19.17000000 
H      35.11500000      36.11400000      18.11000000 
H      34.92300000      37.79300000      17.61100000 
N      30.28300000      37.39300000      18.70600000 
C      28.93700000      37.19200000      19.21800000 
C      28.27300000      36.10700000      18.42500000 
O      27.59800000      35.20400000      19.00500000 
C      28.16900000      38.49200000      19.08900000 
C      26.81900000      38.40600000      19.79200000 
C      25.99400000      39.61000000      19.51600000 
O      25.82900000      40.02200000      18.33100000 
N      25.44700000      40.23000000      20.55600000 
H      30.54100000      38.28900000      18.38000000 
H      28.97700000      36.88100000      20.25100000 
H      28.74500000      39.28100000      19.50400000 
H      28.01200000      38.70900000      18.03500000 
H      26.25800000      37.54500000      19.43300000 
H      26.96000000      38.28100000      20.84900000 
H      25.64800000      39.96600000      21.48700000 
H      24.88400000      41.03500000      20.40100000 
N      28.37200000      36.16500000      17.13700000 
C      27.74500000      35.16100000      16.29600000 
C      28.33400000      33.80500000      16.60400000 
O      27.58000000      32.81500000      16.70800000 
C      27.95800000      35.49800000      14.83300000 
C      27.08800000      36.67000000      14.41500000 
C      27.45300000      37.11200000      13.02100000 
N      26.50100000      38.12800000      12.57700000 
C      26.59300000      38.75400000      11.42500000 
N      27.60700000      38.49700000      10.59900000 
N      25.67600000      39.65800000      11.08600000 
H      28.88000000      36.89700000      16.69100000 
H      26.70000000      35.10000000      16.52500000 
H      28.99300000      35.71700000      14.67200000 
H      27.69100000      34.63200000      14.23900000 
H      26.04400000      36.38400000      14.45100000 
H      27.23400000      37.50200000      15.09900000 
H      28.44700000      37.53100000      13.02500000 
H      27.42800000      36.27400000      12.34200000 
H      25.73100000      38.32600000      13.16300000 
H      28.28500000      37.82700000      10.82500000 
H      27.68400000      38.98100000       9.73700000 
H      24.92800000      39.86600000      11.67700000 
H      25.73400000      40.13200000      10.20700000 
N      29.62200000      33.72100000      16.71200000 
C      30.24400000      32.43900000      17.00200000 
C      29.65800000      31.83800000      18.23200000 
O      29.30200000      30.63600000      18.25500000 
C      31.74100000      32.59700000      17.17800000 
C      32.43500000      32.89900000      15.86800000 
C      33.88200000      33.21000000      16.08800000 
O      34.24400000      33.93500000      17.01000000 
N      34.73700000      32.67600000      15.21700000 
H      30.21000000      34.51600000      16.60900000 
H      30.03400000      31.74100000      16.19500000 
H      31.92200000      33.39600000      17.88500000 
H      32.13500000      31.68500000      17.59700000 
H      32.31900000      32.06500000      15.18500000 
H      31.99100000      33.77500000      15.40900000 
H      34.44600000      32.07800000      14.48800000 
H      35.71100000      32.88000000      15.30700000 
N      29.56600000      32.60700000      19.31200000 
C      28.99900000      32.05300000      20.50900000 
C      27.57400000      31.59400000      20.24500000 
O      27.18900000      30.49700000      20.61200000 
C      29.01400000      33.04400000      21.65800000 
C      30.34900000      33.06300000      22.35500000 
C      30.65400000      32.01800000      23.23100000 
C      31.27600000      34.04200000      22.13500000 
C      31.87800000      31.98500000      23.87200000 
C      32.52800000      34.02000000      22.77500000 
C      32.82100000      32.97600000      23.64300000 
H      29.86200000      33.55700000      19.28700000 
H      29.53500000      31.15500000      20.79300000 
H      28.78200000      34.03600000      21.26600000 
H      28.25200000      32.78300000      22.36000000 
H      29.93300000      31.25400000      23.40500000 
H      31.05600000      34.83900000      21.44300000 
H      32.10600000      31.17900000      24.53900000 
H      33.22700000      34.77800000      22.59500000 
H      33.75300000      32.95400000      24.13400000 
N      28.53400000      42.22500000      23.61200000 
C      28.96400000      42.51100000      22.26600000 
C      28.14300000      43.58200000      21.60800000 
O      28.54000000      44.07200000      20.52200000 
C      28.84700000      41.27500000      21.37800000 
C      29.83700000      40.19900000      21.78200000 
C      31.19100000      40.39600000      21.51100000 
C      29.42200000      39.02900000      22.35900000 
C      32.08700000      39.41600000      21.83100000 
C      30.33800000      38.03700000      22.67700000 
C      31.67400000      38.23100000      22.41600000 
H      28.00000000      41.39900000      23.77400000 
H      29.97200000      42.85800000      22.27500000 
H      27.84300000      40.87700000      21.48700000 
H      29.00000000      41.55700000      20.38700000 
H      31.51200000      41.30400000      21.07000000 
H      28.38300000      38.89800000      22.59000000 
H      33.14300000      39.56600000      21.63000000 
H      30.00000000      37.13400000      23.13900000 
H      32.38500000      37.47200000      22.67400000 
N      27.33400000      46.61800000      20.91800000 
C      27.70600000      47.98700000      20.94000000 
C      28.14200000      48.37100000      19.55100000 
O      28.98000000      47.68300000      18.95500000 
C      28.83700000      48.26400000      21.93200000 
O      28.28100000      47.94900000      23.19000000 
C      29.29500000      49.70000000      21.87900000 
H      27.94000000      45.94300000      20.51900000 
H      26.85300000      48.57900000      21.24900000 
H      29.65400000      47.58800000      21.70300000 
H      28.93700000      48.00600000      23.90800000 
H      30.02700000      49.87700000      22.65500000 
H      29.74900000      49.93900000      20.92800000 
H      28.45300000      50.36200000      22.03900000 
N      27.57800000      49.45400000      19.06000000 
C      27.81500000      49.98800000      17.72100000 
C      28.22600000      51.43700000      17.85800000 
O      28.08900000      52.06600000      18.90500000 
C      26.49800000      49.97200000      16.92100000 
C      25.82200000      48.60800000      16.91000000 
C      26.52500000      47.54200000      16.12600000 
N      26.45400000      47.92000000      14.69100000 
C      26.85400000      47.08200000      13.74300000 
N      27.39300000      45.87000000      14.03200000 
N      26.74000000      47.40200000      12.45300000 
H      26.91100000      49.92800000      19.59200000 
H      28.56500000      49.40600000      17.24400000 
H      25.82700000      50.69000000      17.36500000 
H      26.70900000      50.29100000      15.92100000 
H      25.71800000      48.25300000      17.94300000 
H      24.80900000      48.73100000      16.52900000 
H      27.56300000      47.47600000      16.42300000 
H      26.04300000      46.60600000      16.27200000 
H      26.09900000      48.74000000      14.44800000 
H      27.52400000      45.60800000      14.98300000 
H      27.66000000      45.26900000      13.34300000 
H      26.32700000      48.28400000      12.21300000 
H      27.02500000      46.80900000      11.75500000 
N      33.16300000      52.27500000      23.39100000 
C      33.87800000      51.14000000      22.86200000 
C      34.78000000      50.52300000      23.91000000 
O      34.82300000      49.33100000      24.08400000 
C      34.69700000      51.58600000      21.63100000 
C      35.55200000      50.45100000      21.13400000 
C      33.72700000      52.04200000      20.54500000 
H      33.34100000      53.15600000      23.08800000 
H      33.20300000      50.36500000      22.56200000 
H      35.31300000      52.41000000      21.94000000 
H      36.06700000      50.76000000      20.22100000 
H      36.28800000      50.14500000      21.84400000 
H      34.93900000      49.59600000      20.88100000 
H      34.28500000      52.35300000      19.67600000 
H      33.08900000      51.22200000      20.26100000 
H      33.11500000      52.86500000      20.86800000 
N      32.80100000      48.47700000      26.27600000 
C      32.33500000      47.25000000      25.65700000 
C      33.44400000      46.24200000      25.62800000 
O      33.24500000      45.04700000      25.95900000 
C      31.85500000      47.53600000      24.25400000 
H      32.77000000      49.31900000      25.71900000 
H      31.54600000      46.82300000      26.26000000 
H      31.44800000      46.63400000      23.80900000 
H      31.07700000      48.28700000      24.29100000 
H      32.65400000      47.90400000      23.65200000 
N      34.63200000      46.65600000      25.18600000 
C      35.73000000      45.74500000      25.07900000 
C      36.02500000      45.09300000      26.40100000 
O      36.24700000      43.86500000      26.45700000 
C      36.93200000      46.53200000      24.59300000 
O      36.64400000      46.93000000      23.23400000 
C      38.22300000      45.74600000      24.60400000 
H      34.73300000      47.60500000      24.88400000 
H      35.53100000      44.98100000      24.35900000 
H      37.03100000      47.42100000      25.21300000 
H      37.22100000      47.64900000      22.97400000 
H      38.99300000      46.33200000      24.12300000 
H      38.52600000      45.51400000      25.61700000 
H      38.07700000      44.84200000      24.04700000 
N      33.30400000      42.55800000      27.34300000 
C      33.35200000      41.33100000      26.60300000 
C      34.41200000      40.43000000      27.21200000 
O      34.13600000      39.21700000      27.44100000 
C      33.72600000      41.62500000      25.13700000 
C      32.53200000      42.27600000      24.44800000 
C      34.15800000      40.37600000      24.44200000 
C      32.93600000      42.95700000      23.15000000 
H      33.43100000      43.43200000      26.86600000 
H      32.41100000      40.81900000      26.65100000 
H      34.53500000      42.33200000      25.16200000 
H      31.78700000      41.50700000      24.24200000 
H      32.08200000      43.00100000      25.08400000 
H      34.36800000      40.56600000      23.39600000 
H      35.07400000      39.96400000      24.86800000 
H      33.39800000      39.60500000      24.49000000 
H      32.08100000      43.39600000      22.66400000 
H      33.65200000      43.74000000      23.35400000 
H      33.38800000      42.25700000      22.45200000 
N      35.55300000      40.92400000      27.42100000 
C      36.65300000      40.08300000      27.87400000 
C      36.36400000      39.58900000      29.26400000 
O      36.68500000      38.42800000      29.60800000 
C      37.95800000      40.88600000      27.84800000 
C      38.37600000      41.09400000      26.39300000 
C      39.64700000      41.90300000      26.29800000 
N      40.24100000      41.75900000      24.98600000 
C      40.87700000      40.65400000      24.58100000 
N      41.15600000      39.70500000      25.40400000 
N      41.21700000      40.51900000      23.29900000 
H      35.73500000      41.91300000      27.26400000 
H      36.72800000      39.23600000      27.25800000 
H      37.82000000      41.81000000      28.34900000 
H      38.71700000      40.32200000      28.35500000 
H      38.51700000      40.13000000      25.93600000 
H      37.59200000      41.60300000      25.85100000 
H      39.46000000      42.94000000      26.45500000 
H      40.36700000      41.58600000      27.04700000 
H      40.07500000      42.48300000      24.30400000 
H      40.95200000      39.74600000      26.38500000 
H      41.58400000      38.85400000      25.04900000 
H      40.87900000      41.11300000      22.57600000 
H      41.67100000      39.68000000      23.03500000 
N      33.89800000      36.80000000      28.95800000 
C      34.51800000      35.57900000      28.45800000 
C      35.28400000      34.93000000      29.58700000 
O      35.21900000      33.70400000      29.76500000 
C      35.45300000      35.88400000      27.28700000 
C      34.60000000      36.31500000      26.09500000 
C      36.27400000      34.66400000      26.95000000 
C      35.45200000      36.87200000      24.94800000 
H      34.12900000      37.66600000      28.53800000 
H      33.77500000      34.88300000      28.16200000 
H      36.08900000      36.69800000      27.56700000 
H      34.03100000      35.45600000      25.74700000 
H      33.90700000      37.06300000      26.39700000 
H      36.86600000      34.83200000      26.06600000 
H      36.96400000      34.41900000      27.75300000 
H      35.64300000      33.80600000      26.78200000 
H      34.80700000      37.18500000      24.12900000 
H      36.00100000      37.72800000      25.28800000 
H      36.13700000      36.14200000      24.57000000 
H      36.94716107      27.65414726      21.03481423 
H      36.07609496      30.14054368      23.19887296 
H      38.81020272      33.25268221      20.54527481 
H      41.73185025      36.53142036      22.06630370 
H      41.35641612      37.80661513      19.63046048 
H      26.93618271      32.19511111      19.76348725 
H      29.25364824      42.14219841      24.14608830 
H      27.29435603      43.89454875      22.03475133 
H      27.21162838      46.32635406      21.76059589 
H      28.62622033      51.91904041      17.07860233 
H      32.28275581      52.17656332      23.23137424 
H      35.35909202      51.10765356      24.47818364 
H      32.30268120      48.65419944      27.00420240 
H      36.04361651      45.64238999      27.23635864 
H      32.49978568      42.63882692      27.73886152 
H      35.91150949      40.18888385      29.92384219 
H      33.00420560      36.74053246      28.87084962 
H      35.84710682      35.48916482      30.19547795 
