313
Properties=species:S:1:pos:R:3 pbc="F F F"
N      47.87000000      39.98900000      81.97500000 
C      48.69700000      39.76500000      80.78900000 
C      49.64500000      40.91400000      80.55500000 
O      49.35500000      42.05800000      81.00800000 
C      47.82500000      39.55200000      79.54200000 
H      47.50900000      40.91400000      82.08200000 
H      49.29700000      38.85800000      80.96800000 
H      48.42100000      39.41000000      78.66300000 
H      47.20400000      38.67700000      79.68400000 
H      47.17900000      40.40900000      79.40900000 
N      50.70300000      40.66300000      79.81300000 
C      51.61400000      41.68500000      79.26100000 
C      51.52300000      41.67100000      77.77400000 
O      51.48500000      40.60300000      77.10300000 
C      53.10300000      41.38800000      79.63900000 
C      53.40700000      41.73200000      81.07600000 
C      54.87300000      41.57800000      81.39400000 
O      55.67300000      40.95000000      80.67300000 
N      55.30200000      42.16100000      82.54900000 
H      50.84000000      39.73200000      79.46700000 
H      51.32500000      42.62700000      79.66200000 
H      53.30500000      40.33800000      79.42800000 
H      53.72400000      41.97200000      78.97400000 
H      53.12300000      42.75400000      81.29000000 
H      52.85100000      41.10100000      81.75800000 
H      54.68200000      42.66500000      83.12100000 
H      56.24200000      42.06800000      82.81500000 
N      53.65700000      43.23600000      74.40800000 
C      54.84600000      43.89800000      73.86800000 
C      54.51700000      44.30500000      72.44000000 
O      54.07400000      43.43800000      71.62100000 
C      56.07700000      42.94800000      73.86100000 
C      56.58900000      42.70200000      75.24500000 
C      56.00100000      41.67700000      76.05700000 
C      57.59800000      43.45500000      75.83100000 
C      56.40400000      41.52500000      77.34700000 
C      57.99900000      43.30300000      77.09100000 
C      57.39800000      42.34900000      77.93300000 
O      57.76100000      42.23100000      79.21700000 
H      53.36600000      42.37600000      73.98000000 
H      55.05300000      44.74200000      74.44900000 
H      55.81400000      42.02800000      73.36000000 
H      56.85500000      43.42900000      73.26700000 
H      55.24900000      41.07200000      75.64300000 
H      58.07000000      44.23400000      75.20100000 
H      55.94000000      40.76300000      77.97300000 
H      58.77200000      43.92000000      77.54800000 
H      57.13800000      41.77800000      79.77500000 
N      51.53300000      44.83900000      83.56300000 
C      50.41300000      43.91500000      83.83200000 
C      49.08300000      44.62200000      83.76600000 
O      48.88700000      45.66800000      84.45400000 
C      50.58800000      43.14400000      85.13900000 
C      50.80500000      44.03800000      86.37100000 
O      50.03800000      43.82000000      87.38500000 
O      51.72900000      44.91100000      86.33600000 
H      52.01600000      45.13700000      84.38500000 
H      50.42300000      43.17400000      83.02500000 
H      49.77700000      42.51200000      85.29700000 
H      51.49700000      42.54300000      85.05000000 
N      53.61500000      40.44000000      70.66100000 
C      53.79600000      39.24700000      71.51800000 
C      52.84400000      39.42500000      72.68100000 
O      52.97700000      40.42800000      73.45300000 
C      55.26800000      39.17600000      71.98400000 
C      55.56800000      38.16700000      73.07400000 
C      57.04800000      38.22900000      73.47700000 
C      57.30300000      37.49600000      74.78500000 
N      58.75300000      37.55900000      75.17700000 
H      53.70500000      41.30300000      71.08100000 
H      53.52800000      38.38200000      70.96200000 
H      55.85400000      38.94100000      71.08600000 
H      55.56300000      40.16200000      72.29500000 
H      54.97000000      38.41000000      73.95900000 
H      55.30200000      37.17400000      72.77900000 
H      57.66100000      37.79000000      72.66900000 
H      57.36000000      39.25400000      73.58500000 
H      56.75700000      37.92700000      75.57200000 
H      57.05200000      36.43300000      74.70400000 
H      58.92300000      37.06600000      76.02300000 
H      59.35900000      37.15200000      74.45800000 
H      59.04800000      38.51100000      75.30600000 
N      51.89100000      38.53600000      72.88600000 
C      50.91100000      38.57200000      73.96000000 
C      51.12400000      37.36900000      74.82300000 
O      51.05500000      36.23500000      74.37000000 
C      49.44900000      38.64300000      73.38700000 
C      49.25300000      39.98600000      72.66000000 
C      48.44200000      38.42200000      74.49900000 
C      47.97900000      40.02800000      71.79300000 
H      51.77800000      37.77300000      72.18500000 
H      51.10500000      39.48900000      74.50700000 
H      49.36700000      37.83600000      72.66800000 
H      49.22100000      40.78200000      73.40000000 
H      50.10900000      40.18000000      72.02100000 
H      47.41700000      38.53500000      74.11000000 
H      48.49700000      37.44600000      74.93700000 
H      48.55300000      39.16600000      75.30100000 
H      47.92900000      40.99300000      71.27600000 
H      47.99500000      39.25800000      71.04900000 
H      47.09000000      39.93400000      72.38100000 
N      51.38400000      37.60900000      76.15100000 
C      51.62900000      36.50700000      77.06100000 
C      50.82300000      36.69100000      78.35100000 
O      50.59800000      37.85100000      78.82700000 
C      53.14300000      36.35400000      77.40600000 
C      53.85600000      37.52000000      78.05500000 
C      55.29900000      37.10900000      78.34400000 
N      55.99800000      38.11100000      79.15800000 
C      57.24200000      37.99600000      79.56400000 
N      57.99300000      36.98100000      79.16200000 
N      57.74800000      38.90300000      80.41200000 
H      51.42100000      38.54500000      76.48000000 
H      51.31300000      35.62000000      76.60700000 
H      53.23100000      35.44800000      78.01400000 
H      53.63300000      36.11000000      76.44400000 
H      53.81900000      38.38500000      77.45200000 
H      53.35900000      37.75600000      79.01600000 
H      55.31800000      36.16900000      78.86600000 
H      55.81700000      36.98300000      77.40500000 
H      55.47000000      38.89900000      79.49800000 
H      57.69300000      36.30800000      78.54000000 
H      58.94600000      36.87800000      79.51700000 
H      57.17000000      39.65100000      80.74400000 
H      58.68900000      38.85500000      80.71500000 
N      50.38000000      35.57300000      78.89200000 
C      49.50000000      35.51900000      80.06600000 
C      50.27100000      35.09600000      81.29800000 
O      51.08800000      34.16000000      81.24500000 
C      48.37300000      34.48600000      79.75100000 
C      47.44600000      34.20100000      80.90300000 
C      46.31200000      33.22000000      80.58600000 
O      46.06400000      32.97600000      79.38400000 
O      45.71200000      32.73900000      81.58900000 
H      50.63900000      34.70900000      78.49200000 
H      49.06200000      36.47700000      80.21100000 
H      47.83000000      34.85700000      78.91500000 
H      48.86000000      33.55300000      79.42900000 
H      47.98800000      33.78500000      81.76200000 
H      46.99300000      35.11700000      81.26600000 
N      49.99000000      35.73100000      82.43400000 
C      50.48300000      35.32100000      83.74000000 
C      49.44300000      34.44900000      84.36200000 
O      48.50400000      34.97400000      85.09500000 
C      50.85300000      36.52600000      84.57700000 
S      51.64400000      36.07700000      86.22700000 
H      49.30400000      36.47800000      82.43000000 
H      51.38800000      34.70700000      83.56600000 
H      51.55200000      37.15800000      84.04400000 
H      49.98300000      37.09700000      84.83100000 
H      52.87600000      35.75100000      85.78800000 
N      49.44200000      33.16200000      84.09700000 
C      48.34100000      32.28100000      84.44400000 
C      48.20300000      32.11200000      85.97600000 
O      47.12300000      31.86100000      86.45900000 
C      48.58000000      30.86600000      83.82200000 
O      49.16200000      31.03400000      82.49800000 
C      47.29500000      30.07300000      83.73900000 
H      50.10700000      32.80700000      83.45100000 
H      47.40900000      32.69000000      84.09600000 
H      49.33400000      30.36900000      84.37400000 
H      48.52200000      31.26800000      81.83700000 
H      47.52400000      29.07300000      83.32600000 
H      46.85500000      29.92800000      84.71000000 
H      46.58200000      30.54600000      83.09500000 
N      49.76000000      29.51000000      88.89700000 
C      50.25200000      28.12300000      88.98600000 
C      51.59400000      28.03300000      89.65100000 
O      52.32100000      29.06500000      89.88100000 
C      50.24100000      27.39400000      87.61400000 
C      48.85700000      26.84000000      87.14800000 
C      48.41700000      25.64700000      87.98100000 
C      47.76400000      27.89200000      87.08900000 
H      49.00100000      29.71400000      89.48100000 
H      49.56800000      27.62000000      89.65100000 
H      50.62500000      28.05800000      86.87000000 
H      50.91600000      26.55300000      87.66000000 
H      49.03100000      26.49400000      86.14400000 
H      47.50000000      25.21400000      87.56900000 
H      49.16400000      24.86600000      87.99300000 
H      48.19700000      25.91500000      89.01400000 
H      46.88300000      27.50100000      86.58700000 
H      47.44800000      28.23200000      88.07700000 
H      48.08100000      28.79000000      86.53100000 
N      54.67400000      26.82400000      86.13500000 
C      54.97600000      27.75300000      85.06000000 
C      54.81800000      29.18500000      85.63300000 
O      54.54300000      29.38600000      86.80900000 
C      54.02000000      27.47000000      83.87000000 
C      54.32800000      26.09500000      83.26100000 
C      53.09200000      25.22100000      83.10300000 
O      53.12700000      24.06500000      83.67000000 
O      52.13400000      25.66300000      82.44800000 
H      53.78800000      26.85000000      86.53600000 
H      55.97300000      27.64200000      84.77300000 
H      53.01900000      27.54100000      84.18900000 
H      54.16600000      28.25600000      83.11400000 
H      54.74100000      26.23100000      82.23300000 
H      55.07700000      25.57100000      83.81400000 
N      55.04100000      30.19600000      84.73400000 
C      54.96900000      31.59000000      85.19500000 
C      54.35800000      32.41600000      84.06600000 
O      53.30800000      33.08700000      84.29000000 
C      56.35500000      32.12100000      85.65000000 
C      56.28600000      33.25300000      86.62400000 
C      56.15200000      34.58300000      86.35600000 
C      56.39300000      33.15100000      88.06000000 
N      56.15900000      35.31700000      87.53700000 
C      56.31600000      34.43700000      88.58600000 
C      56.55800000      32.07100000      88.92900000 
C      56.40600000      34.69600000      89.94700000 
C      56.65600000      32.30800000      90.28500000 
C      56.58600000      33.60400000      90.81600000 
H      55.31600000      29.98500000      83.84400000 
H      54.29400000      31.63700000      86.01000000 
H      56.86900000      31.29100000      86.11000000 
H      56.94800000      32.39200000      84.77800000 
H      56.05300000      35.08800000      85.41200000 
H      56.08000000      36.29300000      87.59100000 
H      56.61200000      31.05600000      88.56100000 
H      56.35600000      35.70800000      90.34600000 
H      56.78500000      31.48800000      90.97600000 
H      56.66200000      33.77800000      91.85100000 
N      54.96300000      32.38800000      82.89200000 
C      54.50100000      33.09300000      81.69800000 
C      54.16800000      32.06600000      80.60500000 
O      54.95000000      31.08500000      80.42100000 
C      55.59200000      34.01000000      81.14200000 
C      55.90200000      35.18600000      82.05000000 
C      57.04800000      35.34900000      82.76600000 
C      55.09000000      36.32400000      82.32400000 
N      56.95900000      36.53400000      83.48800000 
C      55.75100000      37.12500000      83.20000000 
C      53.81900000      36.74900000      81.83400000 
C      55.24100000      38.33400000      83.71200000 
C      53.29800000      37.92900000      82.28900000 
C      53.97800000      38.71200000      83.22000000 
H      55.81300000      31.88000000      82.77500000 
H      53.61500000      33.63300000      81.95000000 
H      56.48100000      33.43700000      80.96000000 
H      55.25300000      34.39000000      80.17300000 
H      57.90200000      34.72700000      82.84100000 
H      57.68000000      36.88000000      84.09100000 
H      53.27800000      36.13800000      81.11900000 
H      55.75600000      38.93600000      84.40800000 
H      52.34500000      38.26700000      81.91800000 
H      53.54300000      39.61900000      83.58600000 
N      53.09000000      32.29500000      79.84400000 
C      52.73700000      31.45800000      78.74700000 
C      52.50400000      32.35000000      77.51900000 
O      51.65600000      33.27400000      77.58700000 
C      51.49200000      30.62000000      79.02600000 
C      51.26000000      29.46800000      78.04600000 
C      49.96000000      28.71200000      78.29700000 
N      49.70300000      28.41200000      79.71400000 
C      50.38500000      27.53500000      80.47000000 
N      50.17000000      27.51800000      81.80700000 
N      51.26100000      26.71000000      79.95900000 
H      52.45800000      33.01600000      80.13300000 
H      53.57400000      30.80000000      78.53600000 
H      51.61400000      30.22600000      80.03500000 
H      50.61900000      31.27300000      79.05700000 
H      51.23900000      29.82300000      77.02900000 
H      52.11900000      28.78700000      78.11400000 
H      49.12300000      29.31100000      77.98200000 
H      49.93100000      27.79700000      77.72200000 
H      49.03200000      28.98100000      80.17200000 
H      49.57800000      28.17700000      82.22700000 
H      50.70600000      26.88300000      82.33900000 
H      51.42600000      26.62700000      78.99200000 
H      51.78100000      26.12200000      80.59700000 
N      53.19100000      32.11400000      76.39400000 
C      53.00500000      32.86400000      75.18800000 
C      51.76900000      32.34600000      74.47600000 
O      51.70400000      31.15100000      74.11400000 
C      54.24500000      32.69300000      74.26900000 
O      55.36700000      33.11500000      75.04900000 
C      54.12500000      33.49200000      72.99300000 
H      53.88200000      31.37700000      76.41900000 
H      52.91200000      33.89000000      75.41600000 
H      54.35000000      31.62000000      74.03500000 
H      56.19000000      32.89500000      74.64500000 
H      55.03100000      33.37800000      72.40400000 
H      53.29900000      33.18200000      72.38100000 
H      54.01100000      34.54700000      73.22400000 
N      50.75400000      33.18000000      74.30400000 
C      49.48900000      32.78300000      73.73400000 
C      49.38700000      33.09500000      72.28200000 
O      48.93500000      32.23500000      71.47900000 
C      48.27700000      33.41500000      74.54400000 
C      46.94900000      33.06000000      73.90300000 
C      48.31800000      32.92100000      75.98700000 
H      50.86500000      34.16400000      74.60400000 
H      49.41600000      31.72200000      73.82400000 
H      48.41800000      34.48600000      74.53300000 
H      46.14500000      33.47100000      74.48700000 
H      46.85000000      33.48400000      72.88500000 
H      46.81200000      31.99500000      73.82000000 
H      47.47800000      33.32300000      76.53400000 
H      48.24300000      31.83100000      76.02400000 
H      49.22300000      33.20800000      76.49900000 
H      47.15655372      39.44086710      81.95166044 
H      51.48947341      42.53228511      77.26698528 
H      53.79316930      43.03367300      75.27432656 
H      54.64902040      45.25193956      72.14695379 
H      52.13570155      44.43381418      83.03142189 
H      48.35579813      44.26549092      83.17941777 
H      54.22566552      40.43047858      69.99994254 
H      49.00571287      32.21034423      86.56420104 
H      50.42067405      30.07815526      89.12218748 
H      51.95344316      27.14358918      89.93339867 
H      54.76630470      25.97971222      85.83724507 
H      49.67752732      33.98907708      71.94108937 
