 427 
 
N                55.1596771224       25.2955291907        5.5140182572
C                56.1401410632       25.3632640266        6.6393803226
C                55.6418745962       26.0350892033        7.9259064475
O                56.0743891729       25.6135943640        8.9906854604
C                57.4546695264       26.0133505151        6.1702837413
C                58.3961611576       24.9911221361        5.5371042416
S                58.8717879428       23.7243519885        6.7984003518
C                59.1546269430       22.2968788938        5.7122732711
H                55.5384150698       24.6606186340        4.7907269292
H                54.2506473725       24.9076449308        5.8148328711
H                55.0145925496       26.2119964004        5.0598502281
H                56.3908696484       24.3390729508        6.9499464428
H                57.2616854284       26.8169951167        5.4589856377
H                57.9590945216       26.4481358188        7.0348123343
H                57.9477257058       24.4565988824        4.7012146304
H                59.3052994941       25.4860841146        5.1989489873
H                59.5302211316       21.4988835199        6.3450774683
H                58.2232861811       21.9825097225        5.2509426191
H                59.8991083570       22.5414030883        4.9596284067
N                54.7353614346       27.0143562933        7.8770801831
C                54.3442720117       27.6766899911        9.1215498931
C                53.9564007513       26.6460443374       10.1898887282
O                54.3890946321       26.6941266356       11.3270368947
C                53.2113458454       28.6677529956        8.8741284293
H                54.3976335975       27.4453020438        7.0268469441
H                55.2075620009       28.2174925716        9.5307697686
H                52.9463942089       29.1644536902        9.8052241307
H                53.5371285237       29.4339389572        8.1751713508
H                52.3133669784       28.1945758186        8.4802935485
N                53.1418379645       25.6548411122        9.7639159819
C                52.6280309321       24.7025062848       10.7383321639
C                53.7881047073       23.9259776580       11.3968709245
O                53.7228067543       23.5860628623       12.5674161751
C                51.6384820256       23.7219518166       10.0896221720
C                50.7383089545       23.0984421899       11.1523454779
O                50.9346375023       21.9949284873       11.6265579139
N                49.7257027021       23.8925362938       11.5473772101
H                52.5754849495       25.8061772184        8.9399619307
H                52.1118369609       25.2427867356       11.5445420241
H                51.0065959032       24.2486734407        9.3716174983
H                52.1731493893       22.9166344801        9.5874316049
H                49.0413991378       23.5328043368       12.1941797485
H                49.4810940508       24.7455504755       11.0714913484
N                54.8086541662       23.6068654799       10.5870931913
C                56.0107572500       22.9627003763       11.0973878887
C                56.6865728818       23.8494129917       12.1528470681
O                56.9302690241       23.4433350974       13.2852767272
C                56.9564718912       22.6657472138        9.9284776611
C                58.3390445947       22.1920889625       10.3735574926
C                58.3252873496       20.8031498992       11.0085334611
C                59.7336627025       20.4248500707       11.4505233563
N                59.6835567870       19.2737841526       12.3931545455
H                54.9390514437       24.1385275539        9.7344778573
H                55.7078160575       22.0476895799       11.6158416649
H                56.4903487787       21.9057605629        9.2999238390
H                57.0972941903       23.5822306861        9.3549857596
H                58.9912525096       22.1851933364        9.5000896283
H                58.7610722980       22.8949680986       11.0968252565
H                57.6850127211       20.8335127594       11.8918116247
H                57.9280659298       20.0721950668       10.3018622459
H                60.3661120581       20.1859585025       10.5956674184
H                60.1625029060       21.2704652840       11.9991333501
H                60.6311974108       18.9379679023       12.6029041049
H                59.2638724516       19.6424218570       13.2782048283
H                59.1213320440       18.4987322672       12.0149817236
N                56.9599813027       25.0885700429       11.7395596508
C                57.6487041726       26.0420003208       12.5869611111
C                57.0299518715       26.0344225509       13.9837675763
O                57.7230098890       25.9780896264       14.9963501597
C                57.5748047803       27.4327821795       11.9662441090
H                56.7481550805       25.3716923956       10.7883717761
H                58.6969968446       25.7357040570       12.7175718214
H                58.0413443762       28.1544726761       12.6305488678
H                58.1072422842       27.4392963972       11.0190249150
H                56.5361976048       27.7103678908       11.8096896072
N                55.6969212893       26.1650594907       14.0137445009
C                55.0157762445       26.2281296702       15.2879381745
C                54.9757986914       24.8536558552       15.9611181142
O                55.2495203795       24.7487633305       17.1551674476
C                53.6616331852       26.9461766633       15.1980005021
C                52.6221962175       26.1238250334       14.4475791299
C                53.1752929880       27.2960239679       16.6029037746
H                55.1669641319       26.2546076381       13.1556134082
H                55.6604857653       26.8194249005       15.9532074694
H                53.8387756690       27.8752171645       14.6458497387
H                51.7159208155       26.7107473319       14.3267581101
H                52.9872090784       25.8405849064       13.4649717259
H                52.3712679716       25.2232778834       14.9997693352
H                52.2047705299       27.7832647100       16.5570555881
H                53.0850386243       26.3935186496       17.2016486642
H                53.8745303733       27.9679169208       17.0958353699
N                54.7092392749       23.7630660516       15.2404919473
C                54.8727073302       22.4904751737       15.9178491994
C                56.1252343704       22.5377894284       16.8019101513
O                56.1239736747       22.1451214829       17.9651221686
C                55.0399754418       21.3193890222       14.9503680155
C                55.5100642342       20.1228894856       15.7737483598
O                54.7713544096       19.5479458482       16.5565641024
N                56.7809461510       19.7376521380       15.5473150679
H                54.4398556104       23.7641966389       14.2604723468
H                54.0273654472       22.2929789293       16.5881680604
H                54.0810999451       21.0803805834       14.4893962453
H                55.7760636716       21.5721370184       14.1906115075
H                57.1477078348       19.0271461219       16.1637351467
H                57.4760553936       20.3701040956       15.1478175591
N                58.1102949054       25.0690951887       17.7801083678
C                58.1025849784       26.0534133102       18.8500661129
C                57.4513367646       25.4857136444       20.1172220312
O                57.9224655682       25.6683407589       21.2307198425
C                57.3285243224       27.2992693876       18.3982041771
C                57.1948829051       28.3309745744       19.4898409059
C                58.3049323701       29.0254768057       19.9547679590
C                55.9514165606       28.6215085134       20.0361034795
C                58.1708003593       29.9961436395       20.9325416045
C                55.8142572898       29.5977633191       21.0087261379
C                56.9231383633       30.2959891596       21.4541580234
H                57.7638634905       25.3486609918       16.8669287171
H                59.1346846568       26.3100243398       19.1224181919
H                57.8572035704       27.7262307190       17.5420755686
H                56.3352636876       26.9737872555       18.0827289282
H                59.2783733883       28.7997618044       19.5459591558
H                55.0823938291       28.0778879081       19.6950927631
H                59.0444359977       30.5186656696       21.2886181449
H                54.8387654803       29.8197578716       21.4144427261
H                56.8102229091       31.0569257108       22.2116125419
N                56.2826119396       24.8759101762       19.8927584983
C                55.5297290257       24.2214987180       20.9431651243
C                56.3687573639       23.1157811789       21.5890227514
O                56.5677045057       23.0863347708       22.8009819407
C                54.2109664951       23.6993628810       20.3454266471
C                53.2895646657       24.8972304258       20.0786046082
C                53.5253582636       22.6731441003       21.2473747231
C                52.1017644603       24.5519704785       19.1891401708
H                55.9926646673       24.6909151316       18.9390855144
H                55.3336662640       24.9485364528       21.7442545382
H                54.4668160774       23.2073674069       19.4003861765
H                52.9321707031       25.2757057068       21.0396294437
H                53.8789091263       25.6785945735       19.5964663262
H                52.8170653945       22.0733006919       20.6811648260
H                54.2407386213       21.9847123270       21.6935461399
H                52.9901172982       23.1691626859       22.0520783366
H                51.4415291478       25.4116886451       19.1073006909
H                52.4489176179       24.2694682198       18.1966348324
H                51.5350858498       23.7245157689       19.6066463589
N                43.5701987150       32.7638057205       18.1376634870
C                43.3526184670       33.1756675893       16.7610525195
C                42.7590045093       31.9629432433       16.0299283061
O                42.7291401065       30.8648154100       16.5755370974
C                44.6646995530       33.7034216787       16.1370612437
C                45.5971927017       32.5533292149       15.7660233235
C                44.3901471888       34.5986530463       14.9321688303
H                43.8634529438       31.7957268744       18.2134942660
H                42.6019261328       33.9748104078       16.7681421715
H                45.1408533274       34.3135610640       16.9141496698
H                46.5150702785       32.9410508950       15.3318391617
H                45.8435677984       31.9664545053       16.6464663119
H                45.1132080405       31.8954484853       15.0447062688
H                45.3135412993       35.0592335778       14.5915422069
H                43.9653032496       34.0301537036       14.1090260695
H                43.6846536344       35.3842123964       15.1912420855
N                42.3161880880       32.1783288230       14.7873118557
C                41.5825555321       31.1450855694       14.0864287839
C                42.3582805562       29.8306216585       14.0662950665
O                43.5645702810       29.7709630834       13.8552146711
C                41.3356595184       31.5878672778       12.6462362550
C                40.4819995260       32.8955929049       12.6275328722
O                39.4283040066       32.8760625243       11.9732074553
O                40.9413451938       33.8657770238       13.2716855184
H                42.0652465190       33.1085044581       14.4321200947
H                40.6133286642       30.9644753383       14.5765599239
H                42.2941933060       31.7729542380       12.1565506378
H                40.7918602279       30.8080794877       12.1121455531
N                41.5604383262       28.7696592047       14.1908709655
C                41.9622392645       27.3929504979       14.3180153327
C                41.2868444520       26.5974020528       13.1955319890
O                40.4673024018       27.1125264978       12.4475840952
C                41.4687690932       26.8418317988       15.6693077162
C                41.7677213372       27.8058569738       16.8163197247
C                41.0534569491       27.4215204498       18.1082220259
N                41.6959584299       26.3093679653       18.7653726790
C                42.0151610068       26.1997317807       20.0413240709
N                42.6222802300       25.0813202814       20.4557644081
N                41.8693915071       27.1904815057       20.9237337457
H                40.5748000608       28.9365425560       14.3827810070
H                43.0535766362       27.3423255126       14.2413240381
H                40.3852436780       26.7117112168       15.5857642938
H                41.9044910166       25.8559174412       15.8409453952
H                42.8429265647       27.8760506997       16.9836399292
H                41.4149171083       28.7977674548       16.5334891624
H                41.0403730894       28.2918337299       18.7624516630
H                40.0157806928       27.1562928443       17.8758627937
H                41.8901497205       25.4942880718       18.1774051517
H                42.6559061026       24.2991052715       19.8171644846
H                42.7114447964       24.9204507590       21.4470250779
H                41.2898746445       27.9756422352       20.6746119918
H                41.9039273752       26.9310574862       21.9088693262
N                41.6472373159       25.3063477052       13.0674946901
C                40.8798782648       24.4237172283       12.2115948742
C                39.6351620684       23.9302382903       12.9676207199
O                39.5593075099       23.9743202298       14.1968523690
C                41.7306470027       23.2513668373       11.7078282510
H                42.3018088614       24.8775220475       13.7056835933
H                40.5258393779       25.0505076806       11.3855421867
H                41.7503304998       23.2193502940       10.6237714592
H                42.7459552774       23.3851488298       12.0679140333
H                41.3485748663       22.3069280382       12.0942512789
N                48.2880824225       17.8356789811       16.6843206097
C                49.1470529991       18.7454200299       15.9608029579
C                48.4823814924       20.1145394247       16.0116905537
O                47.3565222184       20.2481621694       16.4872156635
C                49.3906182655       18.2440167413       14.5209528794
C                50.7587710077       17.5650950274       14.4531269919
O                51.7550500153       18.1251451859       14.8770461585
N                50.7963292958       16.3735912840       13.8440889499
H                47.3750642824       18.2147897506       16.9118555468
H                50.1213942063       18.8003180833       16.4659753467
H                48.5877915774       17.5693399905       14.2242289233
H                49.4194760500       19.0813454417       13.8221717098
H                51.6762026044       15.8820357139       13.8484002760
H                49.9631304083       15.8552548805       13.6265206907
N                49.1588049869       21.1533384018       15.5085667241
C                48.6060300407       22.4794646424       15.7063866657
C                47.3572780634       22.7733933541       14.8972398193
O                46.7722572999       23.8365676275       15.0794021285
C                49.7623503625       23.4446900948       15.4015032386
C                50.9993581367       22.5742953905       15.6161758828
C                50.5473207378       21.2205679323       15.0786016449
H                48.2881835101       22.5799949304       16.7543205206
H                49.7118609121       23.7822059055       14.3673645997
H                49.7296581761       24.3133623781       16.0535968371
H                51.8696302835       22.9424980051       15.0811006177
H                51.2217252781       22.5000858787       16.6807044133
H                50.5983849804       21.2172397898       13.9830833379
H                51.1263979150       20.3849010376       15.4676212189
N                46.9239152300       21.8910823040       13.9896698891
C                45.7176112479       22.1768245171       13.2343017277
C                44.5637946096       22.6797072932       14.1064608842
O                43.9558206123       23.7011167308       13.8187431679
H                47.3145299739       20.9630598188       13.9567899031
H                45.9106698436       22.9886764086       12.5227538777
H                45.3987116404       21.2817885137       12.7016638765
N                44.2869378499       21.9703519990       15.2200118501
C                43.1401504403       22.3585331496       16.0173682599
C                43.3906654458       23.6221397036       16.8408986246
O                42.5591795379       23.9653580600       17.6834094672
C                42.7956677917       21.2588257515       17.0151170570
C                42.5241061995       19.9025366573       16.3037598116
O                41.3939351924       19.4039929539       16.4427960438
O                43.4908833025       19.4185832893       15.6692240513
H                44.4707037730       20.9631434007       15.2779077978
H                42.2654969247       22.5593994072       15.3735542599
H                43.6354146013       21.1309352412       17.6985707987
H                41.9129654189       21.5631406597       17.5754470779
N                44.5418956230       24.2418352438       16.6351229875
C                45.0522982635       25.3170882127       17.4602889918
C                45.2380132317       26.6106967096       16.6595784697
O                44.8973529861       27.6936031807       17.1152615220
C                46.3871389496       24.9267046276       18.1331521812
C                46.7691141927       25.9726968936       19.1776342092
C                46.2769989955       23.5550798835       18.7938335341
H                45.1619634031       23.7980757008       15.9618246008
H                44.3034911955       25.5194375096       18.2333314809
H                47.1528415453       24.8889840295       17.3526373745
H                47.7485062925       25.7477400412       19.5902288269
H                46.7935792409       26.9644593703       18.7367270298
H                46.0394769501       25.9740807703       19.9826802972
H                47.2090691899       23.3272001117       19.3009801966
H                45.4749457615       23.5507259641       19.5283578383
H                46.0743174124       22.7689879817       18.0686052246
N                45.8449275153       26.4538614906       15.4827955543
C                46.0650728746       27.5285602303       14.5483986678
C                45.6467694416       27.0657838041       13.1533819089
O                45.6550820459       25.8922363166       12.8259552247
C                47.5625603135       27.8863462837       14.4803461462
C                48.1039511894       28.2188195457       15.8390412129
C                47.6779279050       29.3640343779       16.4974995758
C                49.0167552225       27.3840891740       16.4643828774
C                48.1414167225       29.6589410049       17.7653828538
C                49.4900223620       27.6819603656       17.7292613308
C                49.0471248541       28.8155684223       18.3858196608
H                46.0914803147       25.5323422499       15.1414516703
H                45.4766418463       28.3944878047       14.8697136456
H                48.0896175587       27.0307594399       14.0559974572
H                47.6737824478       28.7341612947       13.8060256492
H                46.9645133757       30.0139088690       16.0148342775
H                49.3494124638       26.4927777920       15.9560818595
H                47.7882972489       30.5459094970       18.2689280528
H                50.1992786029       27.0232228760       18.2035604137
H                49.3979042325       29.0402859772       19.3790237681
N                45.3414628220       28.0698622873       12.3137826702
C                44.9700409096       27.8051160355       10.9387504326
C                46.2659195146       27.7154597199       10.1064261128
O                47.2660091446       27.2102667729       10.5908067985
C                43.9114680177       28.7906579108       10.4512247075
C                42.9640925560       28.1823496434        9.4003283660
C                42.7706386192       29.1366732987        8.2322634270
O                43.7471119539       29.5861084136        7.6305976134
N                41.5040545618       29.4003373972        7.8963934269
H                45.1931257109       28.9971583843       12.6817798068
H                44.5591974060       26.7841327242       10.9394698549
H                43.3271128105       29.1136943453       11.3148853013
H                44.3988792203       29.6816767690       10.0488597198
H                43.4094676576       27.2707805196        8.9898353169
H                42.0118062240       27.9214183096        9.8614241470
H                40.7299113989       29.0843816616        8.4637877560
H                41.3160273915       30.0441478277        7.1411152572
N                46.2339440045       28.1656499574        8.8427433399
C                47.3888055670       27.9484276271        7.9860962126
C                48.4163748357       29.0683976242        8.1225532728
O                49.6124145669       28.8614312926        8.2776395377
C                46.9967615723       27.7607709717        6.5304952184
C                48.1873451122       27.1181277415        5.7233869070
O                48.8054631020       26.1979038953        6.2809245449
O                48.3957604215       27.5798731831        4.5867511100
H                45.4148890974       28.6075578039        8.4384789435
H                47.8808239977       27.0297264450        8.3277036031
H                46.1539152516       27.0676923823        6.4651658613
H                46.7151767315       28.7016196938        6.0581479576
N                47.9049663258       30.3057386015        8.0889544242
C                48.7509643661       31.4814976669        8.1647734359
C                48.9618861949       31.8177146886        9.6512231525
O                48.1606567100       32.4935947058       10.2803176170
C                48.1049017566       32.6606362900        7.4291167675
O                47.7542866104       32.2014736000        6.1397655972
C                49.0737775557       33.8400070856        7.3767273984
H                46.9238478561       30.4447547046        7.9053123108
H                49.7020070818       31.2233217646        7.6868498211
H                47.2016728203       32.9525813251        7.9905225717
H                47.4198569669       32.9452079588        5.6229848798
H                48.6015918550       34.6910109021        6.8941653174
H                49.3557602619       34.1260131531        8.3853348680
H                49.9633669433       33.5663679506        6.8167906406
N                50.0870038234       31.3174400589       10.1822582934
C                50.3352565730       31.3755155114       11.6142135358
C                51.5632356929       32.2571820918       11.8956755894
O                52.6934494718       31.9157130075       11.5870355515
C                50.5648958123       29.9727040855       12.2067714930
C                50.5661617283       30.0645784250       13.7310264387
C                49.4888112405       29.0089996404       11.7193818885
H                50.6220216705       30.6491895870        9.6426847433
H                49.4381662627       31.8224798054       12.0576441051
H                51.5460514771       29.6192431520       11.8765791031
H                50.7468823041       29.0862714380       14.1664674785
H                51.3355924158       30.7505016669       14.0761430208
H                49.6038288751       30.4190399677       14.0922719576
H                49.5408225249       28.0690368601       12.2585806521
H                48.4989135506       29.4330821664       11.8807431896
H                49.5740386435       28.7910593397       10.6588123941
N                51.3041176830       33.4088334660       12.5325234148
C                52.3247012227       34.3974902029       12.8280841192
C                52.9334787593       34.0540325553       14.1901119728
O                52.4800688642       34.5146040399       15.2402187416
C                51.6628975239       35.7881366170       12.8641403397
O                50.5324857700       35.7357678313       13.7118560992
C                51.2116712616       36.2256093480       11.4765271735
H                50.3607620181       33.6976250333       12.7579699990
H                53.1078359383       34.3550519562       12.0645270262
H                52.4019790737       36.5061961168       13.2525892066
H                50.8519885851       35.4279590542       14.5775984648
H                50.6865407108       37.1728761965       11.5593037882
H                52.0823208574       36.3630545292       10.8419899057
H                50.5491098859       35.4816815941       11.0407708268
N                53.9038664689       33.1461344789       14.1647006641
C                54.4672782300       32.6266789084       15.3960054785
C                55.1954845933       33.7042036932       16.2113260918
O                55.0726104125       33.7169217721       17.4383003890
C                55.2936003670       31.3533652135       15.1408423701
C                56.5639593633       31.6308101544       14.3427812737
C                55.6192297065       30.6674495958       16.4683159305
H                54.2400899675       32.8004742982       13.2765433251
H                53.6175264922       32.3537038393       16.0385612008
H                54.6525357035       30.6868502584       14.5513262999
H                57.0956864712       30.6989627835       14.1629745926
H                56.3404296623       32.0909962253       13.3819850761
H                57.2165884741       32.3104370961       14.8847925625
H                56.1114628632       29.7149336168       16.2913473624
H                56.2747600465       31.2916314577       17.0685336265
H                54.7129188629       30.4888054034       17.0405443848
N                52.5185745816       35.5786828201       17.9940825902
C                51.9595420300       34.7271400423       19.0276771053
C                52.7217074143       34.9519135907       20.3354215955
O                52.1641964910       35.3031726509       21.3709770311
C                52.0425247312       33.2720263873       18.5753079841
C                51.5202692730       32.2763905426       19.6155581889
C                50.0139105649       32.4338823777       19.8114409744
C                51.8681451296       30.8576978907       19.1729632677
H                52.7611923038       35.1636886231       17.1029064755
H                50.9204482983       35.0310458599       19.2044311450
H                51.4702715607       33.1767518230       17.6489988334
H                53.0882244389       33.0565626748       18.3458656122
H                52.0224614479       32.4794712472       20.5681204034
H                49.6267313940       31.6276851659       20.4284708680
H                49.7922233619       33.3786288833       20.3002575751
H                49.5076363576       32.4098515694       18.8489829632
H                51.5501160614       30.1410174867       19.9240065534
H                51.3717436654       30.6232926858       18.2339252164
H                52.9419648399       30.7544695495       19.0347585182
N                47.7267791093       22.1108324075       26.0931877308
C                47.9885102158       21.9701102566       24.6742167170
C                49.4762934200       22.2004774541       24.3757621745
O                49.9088040435       23.2200940373       23.8757857167
C                47.1336782395       22.9435176807       23.8588894900
C                46.8025685995       22.4345537919       22.4482439913
C                48.0610826392       22.0698910619       21.6642504522
C                45.8182187004       21.2676294382       22.4755862418
H                47.7733883083       23.0503125026       26.4748745113
H                47.7413161832       20.9310872034       24.4299468044
H                46.2016156863       23.1264509364       24.3950236485
H                47.6899326989       23.8805081155       23.7781845909
H                46.3180061827       23.2656796690       21.9255021916
H                47.7908716996       21.7498996881       20.6617344145
H                48.7238217588       22.9289422659       21.6009195721
H                48.6118325416       21.2541628834       22.1281891620
H                45.6836402654       20.8686420934       21.4752900322
H                46.1695192309       20.4608274114       23.1141241485
H                44.8505492324       21.5941819844       22.8453922776
H                56.9828827557       22.8980999364       16.4350101852
H                58.9538463908       24.7921311601       17.6327590606
H                56.7689952643       22.3959432910       21.0218869314
H                44.2114578294       33.2762001239       18.5067687883
H                38.8564888900       23.5601292812       12.4609774503
H                48.1498644331       17.0961040651       16.1904332429
H                55.7615774555       34.3852843802       15.7469254359
H                51.9311919558       36.2295851481       17.7908393607
H                53.7114246829       34.8125484149       20.3676252586
H                46.8971506525       21.8140187931       26.2765406747
H                50.1458575565       21.4906075835       24.5943225410
