 248 
 
N               159.9852650828       70.9336197078      103.6304557324
C               160.6913135319       70.3456077605      104.7453248301
C               160.2819122936       71.0392985968      106.0403947070
O               159.9570531947       70.4050115738      107.0373339611
C               162.2154866584       70.4198953894      104.5110027994
O               162.5608290672       69.8072106492      103.2855637918
C               162.9602485858       69.6979735075      105.6266000675
H               160.5222399420       71.3400442383      102.8773398433
H               160.3992721524       69.2901270701      104.8423893422
H               162.4991818882       71.4828603670      104.4893932258
H               162.2280735671       70.3638224441      102.5619703700
H               164.0279432303       69.8627855356      105.5213643932
H               162.6235769145       70.0535506907      106.5951523201
H               162.7638888728       68.6315865817      105.5604411741
N               158.5885814441       69.2156186160      109.2897263933
C               159.2155546453       69.3128779560      110.5879646086
C               158.1897285008       69.8170336728      111.6047169217
O               158.0993676760       69.3341831520      112.7317399939
C               160.4035669979       70.2705756027      110.5260370405
C               161.5645285536       69.6834994158      109.7248651951
O               161.4893492824       68.6516357222      109.0817176507
N               162.6861143675       70.4236715923      109.7753957983
H               159.1164792407       69.5510974400      108.4914120738
H               159.5412649561       68.3152415948      110.9199174442
H               160.0730153867       71.1990611060      110.0549299519
H               160.7421458246       70.4859667204      111.5401085171
H               163.5174014708       70.0632472956      109.3334031970
H               162.7650170421       71.2268370390      110.3757555724
N               174.0454370969       67.4661366694      100.4095399376
C               173.5670823994       67.3552926915      101.7726202155
C               174.5997612453       66.5490206351      102.5565711275
O               175.1201081635       65.5660084150      102.0415087592
C               172.2158815665       66.6038289186      101.7613956897
O               171.2381589742       67.3010425899      101.0337933876
C               171.6656232857       66.4004847052      103.1696547922
H               173.8392843910       66.6757142946       99.8058926234
H               173.4489426986       68.3595763851      102.1903071373
H               172.4133065664       65.6239718721      101.2936129704
H               171.5416247614       67.4749923034      100.1171138196
H               170.7202096067       65.8707969647      103.1014725101
H               172.3526921818       65.8370708887      103.7936520192
H               171.4776560155       67.3679338976      103.6276922157
N               174.9198815070       66.9686840099      103.7875589274
C               175.7213065559       66.1045993935      104.6360177850
C               174.8175878504       64.9458904480      105.0796684564
O               173.7422803576       65.1682190224      105.6392047402
C               176.2693596863       66.8578421572      105.8443164780
C               177.4055560978       67.8127464309      105.4879075927
C               177.7517150065       68.6789515834      106.7288882411
O               176.8538744660       69.3841546662      107.2019742144
O               178.9290183047       68.5942890355      107.1817252255
H               174.4127251726       67.7148785590      104.2374049591
H               176.5430406959       65.7045966183      104.0351675591
H               175.4704375659       67.4322870679      106.3190772799
H               176.6279106011       66.1288765179      106.5772082737
H               178.2900797178       67.2638829732      105.1614586123
H               177.0871292302       68.4878040815      104.6913298614
N               175.2456604851       63.7337048392      104.7569082409
C               174.5566222546       62.5274221552      105.1518050345
C               175.4795842562       61.7576749284      106.0949952302
O               176.6871272177       61.9549402096      106.1285743369
C               174.1341131058       61.6705929018      103.9349751378
C               173.2529151855       62.4925378629      102.9964672194
C               175.3515460861       61.1296456044      103.1911400848
H               176.1650232912       63.6256135873      104.3325660201
H               173.6627997604       62.8423666826      105.7033441987
H               173.5537658482       60.8291168313      104.3289788045
H               172.8880746656       61.8676064647      102.1868833991
H               172.3989480227       62.9066745385      103.5277473789
H               173.8190567056       63.3210727065      102.5731548435
H               175.0324406841       60.5373262646      102.3392895303
H               175.9662681563       61.9502492410      102.8286189581
H               175.9427965714       60.5072023087      103.8565356082
N               174.8783208070       60.8370151425      106.8587104528
C               175.6391410872       60.1429878752      107.8771293636
C               175.1555980898       58.7078237355      108.0354604501
O               173.9702973639       58.4231739153      108.1132831477
C               175.5697847000       60.8937705183      109.2299483979
C               174.1549151901       60.9169242973      109.8026049674
C               176.5695940358       60.2885769851      110.2085032383
H               173.8664045105       60.7699372389      106.8704650360
H               176.6839622134       60.1613425432      107.5484513976
H               175.8829624495       61.9224443041      109.0124624893
H               174.1285547633       61.4949044725      110.7242118874
H               173.4675795260       61.3746368963      109.0943435538
H               173.8167141051       59.9075090955      110.0215886555
H               176.5634520123       60.8584989140      111.1327677340
H               176.3257773415       59.2529906880      110.4333093925
H               177.5710655108       60.3473965591      109.7893160459
N               171.1570883384       59.0611976624      107.4187076649
C               170.3006839341       60.1736058276      107.7680272160
C               170.8962687985       61.4850269171      107.2457456972
O               172.0760206685       61.5832443057      106.9461801181
C               170.1665105897       60.2681731380      109.3014553986
C               169.7151167555       58.9710703412      109.9181696494
C               168.4642519166       58.4332649542      109.6354734125
C               170.5366060586       58.3015510574      110.8136073970
C               168.0451366112       57.2568985160      110.2264236039
C               170.1115697187       57.1461552081      111.4396386331
C               168.8619907248       56.6140144022      111.1518076658
O               168.4166153504       55.4796807373      111.7551787216
H               172.0594206621       58.9906852640      107.8771488708
H               169.3262201707       59.9852879066      107.3048516221
H               171.1393630007       60.5398958649      109.7154301615
H               169.4479595009       61.0516452735      109.5486225456
H               167.7842585517       58.9403193103      108.9674533624
H               171.5161491605       58.6946130054      111.0392018469
H               167.0747729938       56.8435875092      109.9928529602
H               170.7415885741       56.6560219761      112.1674745931
H               169.0283633759       55.2259799129      112.4612127802
N               170.0431752042       62.5240023006      107.1557227190
C               170.5504111061       63.8747333287      106.9601453091
C               171.2205563708       64.3337972635      108.2583492827
O               170.6792358004       64.1509731080      109.3458852062
C               169.4066241460       64.8231085610      106.6184872830
H               169.1380239764       62.4506705447      107.5979201074
H               171.2962740131       63.8456239846      106.1613749283
H               169.8134439998       65.7927133549      106.3497363897
H               168.8451451354       64.4313439210      105.7757622693
H               168.7528298137       64.9381864651      107.4795587303
N               172.3776309934       64.9893231221      108.1309503787
C               173.1336709850       65.3816818733      109.3057926422
C               172.2404368109       66.0671605144      110.3377132776
O               172.3159491254       65.7996647532      111.5332009118
C               174.2658063833       66.3271255231      108.9231416479
H               172.8483876388       65.0627238959      107.2291325456
H               173.5532925944       64.4922214306      109.7977984679
H               174.7748588332       66.6918266869      109.8130119242
H               174.9909766893       65.8050537223      108.3054180507
H               173.8936274619       67.1855536507      108.3708902021
N               171.4048838999       66.9899631787      109.8552099201
C               170.5920133281       67.8205998966      110.7173673327
C               169.6007294290       67.0132378952      111.5748660166
O               169.2199443603       67.4548872709      112.6489156044
C               169.8085975182       68.8215507529      109.8625496552
O               168.9910884590       68.1060836451      108.9728747885
H               171.3815593808       67.1771141471      108.8629389004
H               171.2344576990       68.3648177334      111.4222982662
H               169.2168738121       69.4483314483      110.5410475843
H               170.5251444436       69.4586573729      109.3267442948
H               168.5252462374       68.7345193800      108.4032598307
N               169.1263498089       65.8961019712      111.0117963225
C               168.2309999514       65.0004238248      111.7089949233
C               168.9340618634       64.0546334420      112.6951533617
O               168.2811689742       63.4013125500      113.4931103495
C               167.4394246998       64.1691575848      110.6908652281
C               166.3827053204       64.9688434892      109.9212330774
C               165.2151068092       65.3812162483      110.8270961825
C               163.9091935865       65.6685860663      110.0889684129
N               164.0003079671       66.9036845142      109.2532853531
H               169.6044435476       65.4999784982      110.2083573987
H               167.5664649036       65.6105668195      112.3296063077
H               168.1700434952       63.7385413527      110.0030400326
H               166.9665168018       63.3511729167      111.2363385305
H               166.8711197918       65.8384363555      109.4807649383
H               166.0090590291       64.3227074193      109.1261175496
H               165.0182222680       64.5639895413      111.5217058745
H               165.5010313907       66.2410397764      111.4333411663
H               163.6438610818       64.8262462021      109.4504916018
H               163.1184213127       65.8105347813      110.8251719076
H               163.0565357538       67.2913082879      109.0320575221
H               164.5291395546       67.6121920270      109.7806581406
H               164.5015743102       66.7080401912      108.3757735935
N               170.2679671636       63.9617848388      112.5738762840
C               171.0887628466       63.2094858110      113.4888605627
C               171.6402228156       64.0543629095      114.6464081854
O               171.8157468423       63.5333867829      115.7448311379
C               172.2633877898       62.5787540718      112.7452990481
H               170.7642419019       64.5601413952      111.9294730671
H               170.4538923926       62.4378139649      113.9412453686
H               172.8629323294       61.9950699477      113.4387055940
H               171.8982004838       61.9359369696      111.9488911731
H               172.8768626519       63.3709602521      112.3192339982
N               171.9173581218       65.3281151248      114.3788645383
C               172.4556273506       66.2494749429      115.3640891555
C               171.7500246267       66.0404927972      116.7040457208
O               170.5545968620       66.2685194398      116.8369527321
C               172.2116675413       67.6940355498      114.9123648980
C               173.3893156497       68.2366591766      114.1192198094
C               174.6463646254       68.3946866275      115.0403461915
O               174.4564399276       68.8933808577      116.1664854718
O               175.7391936133       68.0290932605      114.5617206411
H               171.9037138972       65.6632539575      113.4241955283
H               173.5331312243       66.0781268851      115.4906145064
H               171.2784814600       67.7377307261      114.3444365189
H               172.0948436156       68.3235850961      115.7982946705
H               173.6539488020       67.5863271952      113.2829790260
H               173.1561322343       69.2332094542      113.7349089016
N               170.4995011851       63.7878729562      118.1844857004
C               169.2957956052       62.9892017843      118.2283850938
C               169.5486126708       61.7765362893      119.1179208721
O               170.6035635901       61.1567899468      119.0896890842
C               168.8723589893       62.4948744311      116.8410045443
C               167.5964998011       61.7290578330      116.9548288837
N               166.3910142843       62.3474735238      117.1303577748
C               167.4170671033       60.3718539443      116.9901888059
C               165.5125621711       61.3876465243      117.2543600727
N               166.0812135114       60.1659107856      117.1775670982
H               171.0652058284       63.7467271660      117.3439283094
H               168.4980610259       63.6037439713      118.6609641873
H               168.7347706414       63.3511069937      116.1805861697
H               169.6528267014       61.8479104089      116.4373012423
H               168.1110462320       59.5655445217      116.8884602386
H               164.4668209420       61.5430777418      117.4241165023
H               165.6304105793       59.2624174161      117.2658133662
N               163.5621827867       56.1452525015      112.6709092022
C               163.7411192082       57.3775397732      111.9304675749
C               163.8364807264       56.9827479628      110.4587513707
O               164.1939523190       55.8607086265      110.1273547727
C               165.0264391115       58.0888476799      112.4003953450
C               165.1759012540       59.5528189963      111.9758483038
C               164.0641640926       60.4207511780      112.5626637501
C               166.5348117907       60.0621049263      112.4570699346
H               163.8509846996       55.3163922403      112.1670741861
H               162.8675874213       58.0102894688      112.1153635309
H               165.0205322372       58.0364621968      113.4918126499
H               165.8813283271       57.5121571289      112.0415138513
H               165.1589813254       59.6123058874      110.8822206751
H               164.2643985376       61.4696003965      112.3653120986
H               163.0890634265       60.1732967480      112.1493542269
H               164.0120958142       60.2773942728      113.6399714841
H               166.6576748256       61.1146831895      112.2204300127
H               166.6212560118       59.9530084426      113.5358036244
H               167.3379395845       59.5047105560      111.9821875083
N               167.4407673504       59.8162288061      104.6128676590
C               167.3625837257       60.9347867308      103.6893458090
C               166.6623789118       60.5075006385      102.3880325240
O               166.7304624923       59.3689231634      101.9511940147
C               168.7661189562       61.4461826190      103.3815412170
H               168.3454963554       59.4003328139      104.8031439142
H               166.7500153702       61.7108545640      104.1638013109
H               168.7202148898       62.3029347294      102.7160587157
H               169.2700426141       61.7233872119      104.3037351176
H               169.3412650520       60.6607463493      102.8961850410
H               159.4742669248       70.3074417015      103.2344986805
H               160.2737532158       72.0379471931      106.0917212177
H               158.4041784927       68.3534532146      109.1089879850
H               157.5673364463       70.5606182163      111.3603603029
H               173.6736337465       68.1863415588      100.0183019207
H               175.8171968984       57.9592371611      108.0791085541
H               170.7379865051       58.2879260620      107.6095077834
H               172.2659680308       65.7110896224      117.4948022903
H               170.2870926415       64.6569971523      118.2819830967
H               168.8400333368       61.4641278996      119.7506264320
H               164.0464937083       56.1771376989      113.4288183429
H               163.6048021263       57.6460099705      109.7471274986
H               167.1347208267       60.0710477740      105.4199629562
H               166.1272332156       61.1721924404      101.8666843752
