294
Properties=species:S:1:pos:R:3 pbc="F F F"
N      59.38200000      23.78200000      24.49000000 
C      59.17800000      24.17700000      25.85900000 
C      59.61700000      23.03900000      26.76700000 
O      59.09100000      21.90800000      26.65800000 
C      57.71200000      24.48000000      26.15100000 
C      57.04500000      25.52300000      25.24300000 
S      57.79000000      27.23000000      25.42700000 
C      56.55600000      28.18900000      24.36300000 
H      58.57700000      23.63000000      23.89000000 
H      59.80200000      25.06700000      26.06300000 
H      57.15000000      23.56600000      26.05000000 
H      57.62800000      24.79800000      27.18900000 
H      57.07800000      25.25400000      24.21500000 
H      56.00000000      25.61200000      25.54600000 
H      56.85100000      29.22100000      24.39700000 
H      56.59600000      27.81500000      23.35900000 
H      55.56900000      28.06700000      24.77900000 
N      59.57400000      22.57700000      30.83400000 
C      58.89500000      23.21400000      31.95700000 
C      58.69700000      22.17300000      33.02000000 
O      58.42900000      20.99500000      32.72600000 
C      57.51600000      23.80200000      31.49000000 
C      56.64700000      22.79400000      30.81000000 
C      56.88300000      22.41100000      29.49600000 
C      55.62400000      22.11300000      31.50000000 
C      56.19600000      21.35900000      28.91500000 
C      54.94400000      21.07300000      30.92700000 
C      55.23300000      20.67300000      29.62400000 
O      54.53800000      19.60900000      29.09500000 
H      59.23000000      21.66300000      30.60500000 
H      59.50700000      24.01100000      32.31300000 
H      57.03400000      24.25300000      32.34600000 
H      57.75500000      24.62500000      30.80800000 
H      57.60500000      22.93100000      28.93100000 
H      55.39700000      22.39500000      32.52400000 
H      56.41300000      21.07500000      27.89200000 
H      54.17800000      20.53900000      31.48100000 
H      54.78700000      19.34000000      28.18800000 
N      55.01700000      24.42700000      37.89000000 
C      54.19100000      25.32900000      37.12600000 
C      52.73000000      25.18600000      37.52600000 
O      52.00500000      26.22200000      37.65600000 
C      54.49800000      25.09100000      35.62700000 
C      53.71900000      25.91300000      34.57700000 
C      52.36500000      25.30100000      34.23100000 
C      53.63200000      27.40500000      34.92300000 
H      55.46800000      23.68200000      37.40300000 
H      54.44200000      26.36500000      37.37500000 
H      55.55500000      25.30500000      35.52300000 
H      54.36800000      24.03300000      35.41500000 
H      54.33100000      25.83700000      33.66800000 
H      51.93500000      25.80500000      33.36000000 
H      52.46000000      24.24600000      33.97800000 
H      51.65300000      25.39600000      35.03100000 
H      53.18300000      27.95700000      34.08600000 
H      52.99800000      27.56100000      35.78400000 
H      54.59700000      27.82700000      35.12000000 
N      45.48600000      30.91400000      29.32900000 
C      46.88600000      31.09100000      29.70900000 
C      47.02000000      30.75300000      31.18500000 
O      46.21900000      31.13600000      32.02900000 
C      47.39200000      32.52500000      29.35500000 
C      46.67700000      33.66300000      30.10500000 
C      48.90100000      32.65200000      29.52100000 
H      44.79100000      31.56300000      29.69800000 
H      47.45300000      30.39600000      29.12300000 
H      47.14700000      32.62200000      28.28900000 
H      47.01300000      34.61900000      29.70500000 
H      45.60300000      33.62800000      29.99700000 
H      46.91600000      33.63700000      31.15000000 
H      49.23800000      33.58800000      29.12500000 
H      49.17600000      32.60400000      30.56800000 
H      49.42400000      31.85300000      28.99900000 
N      48.07500000      29.95000000      31.50600000 
C      48.32600000      29.52400000      32.87900000 
C      49.46400000      30.35100000      33.44300000 
O      50.64900000      30.14600000      33.17100000 
C      48.55400000      27.99000000      33.02400000 
C      49.63600000      27.45600000      32.07500000 
C      48.86700000      27.60400000      34.47400000 
H      48.68200000      29.64700000      30.78700000 
H      47.44300000      29.75800000      33.43700000 
H      47.61300000      27.55200000      32.73500000 
H      49.69900000      26.37800000      32.21100000 
H      49.43000000      27.65600000      31.04500000 
H      50.58900000      27.86500000      32.33200000 
H      48.80200000      26.50700000      34.56100000 
H      49.86300000      27.92300000      34.76600000 
H      48.15000000      28.04200000      35.16700000 
N      49.08900000      31.34300000      34.28500000 
C      50.04600000      32.17500000      35.00300000 
C      49.53200000      32.27200000      36.44200000 
O      49.69500000      31.32600000      37.21500000 
C      50.30400000      33.49400000      34.32800000 
C      51.28300000      34.35800000      35.10400000 
O      52.22400000      33.73300000      35.70300000 
O      51.10600000      35.60700000      35.11500000 
H      48.12800000      31.54600000      34.36600000 
H      50.96900000      31.62200000      35.05600000 
H      50.71100000      33.30000000      33.34800000 
H      49.38100000      34.04900000      34.13500000 
N      51.74200000      37.04300000      24.91600000 
C      51.83700000      36.54600000      26.28700000 
C      52.15200000      35.07700000      26.38400000 
O      51.69000000      34.42800000      27.32600000 
H      51.89200000      36.41800000      24.16600000 
H      52.60900000      37.09800000      26.83300000 
H      50.91900000      36.69500000      26.81500000 
N      52.96100000      34.54100000      25.44700000 
C      53.22000000      33.09800000      25.38900000 
C      54.73600000      32.92900000      25.53900000 
O      55.50000000      33.16800000      24.58600000 
C      52.67300000      32.47500000      24.09800000 
C      51.14700000      32.68600000      23.95700000 
C      53.05100000      30.98700000      24.00800000 
C      50.25600000      31.93300000      24.93700000 
H      53.39800000      35.09900000      24.76500000 
H      52.73400000      32.64700000      26.24400000 
H      53.13900000      32.97500000      23.26700000 
H      50.94200000      33.74400000      24.01000000 
H      50.87800000      32.39000000      22.95500000 
H      52.61600000      30.53200000      23.12700000 
H      54.12300000      30.85000000      23.95100000 
H      52.69600000      30.42700000      24.87400000 
H      49.20600000      32.18000000      24.75100000 
H      50.35700000      30.85800000      24.83800000 
H      50.46200000      32.19300000      25.96600000 
N      55.16100000      32.51500000      26.72300000 
C      56.52500000      32.38100000      27.13000000 
C      56.72900000      31.03300000      27.81000000 
O      55.74800000      30.30500000      28.05100000 
C      56.95200000      33.54700000      28.03800000 
O      56.88800000      34.74200000      27.26500000 
H      54.46700000      32.28000000      27.42800000 
H      57.14300000      32.41300000      26.23800000 
H      56.27200000      33.59300000      28.87900000 
H      57.95000000      33.39300000      28.41800000 
H      56.84000000      35.51600000      27.78600000 
N      57.92800000      30.69700000      28.19400000 
C      58.22200000      29.43100000      28.85900000 
C      57.47600000      29.29800000      30.18100000 
O      57.22400000      28.16300000      30.64000000 
C      59.73100000      29.27900000      29.06700000 
H      58.73000000      31.28200000      27.96500000 
H      57.86300000      28.63100000      28.25400000 
H      59.95600000      28.34600000      29.55800000 
H      60.23300000      29.28400000      28.10200000 
H      60.12500000      30.08600000      29.66000000 
N      57.16300000      30.43200000      30.82900000 
C      56.47800000      30.51600000      32.09400000 
C      54.93600000      30.51600000      31.98900000 
O      54.29500000      30.47700000      33.01700000 
C      56.91200000      31.78900000      32.83800000 
C      58.34900000      31.72500000      33.36500000 
C      58.58100000      30.79300000      34.54000000 
O      57.61000000      30.17900000      35.03200000 
O      59.79000000      30.72800000      34.96800000 
H      57.46200000      31.28900000      30.42800000 
H      56.72900000      29.64400000      32.70100000 
H      56.83000000      32.62400000      32.13300000 
H      56.25200000      31.97200000      33.65200000 
H      59.05400000      31.44300000      32.57100000 
H      58.66000000      32.72000000      33.66700000 
N      54.38600000      30.62700000      30.77100000 
C      52.95100000      30.83300000      30.59400000 
C      52.43600000      30.02400000      29.39800000 
O      52.12100000      30.63400000      28.32500000 
C      52.58000000      32.29700000      30.37800000 
C      53.04900000      33.30700000      31.43400000 
C      52.35400000      34.63700000      31.08500000 
N      52.60200000      35.67600000      32.07900000 
C      52.02100000      36.88700000      32.05200000 
N      51.23900000      37.22100000      31.01900000 
N      52.25100000      37.75900000      33.03000000 
H      54.96600000      30.62900000      29.95000000 
H      52.46500000      30.47400000      31.47900000 
H      52.96400000      32.62000000      29.41900000 
H      51.51300000      32.34300000      30.31300000 
H      52.76200000      33.00300000      32.43400000 
H      54.11900000      33.44100000      31.41800000 
H      52.71100000      34.98300000      30.11900000 
H      51.29700000      34.48500000      31.01600000 
H      53.19700000      35.47800000      32.86300000 
H      51.06500000      36.61500000      30.27500000 
H      50.79500000      38.10500000      31.00700000 
H      52.68200000      37.46700000      33.87300000 
H      51.82500000      38.66400000      33.01400000 
N      52.29400000      28.70700000      29.49900000 
C      51.80300000      27.93600000      28.35900000 
C      50.26400000      28.00400000      28.16200000 
O      49.53200000      28.77500000      28.80300000 
C      52.34100000      26.52600000      28.62200000 
C      52.42600000      26.44800000      30.13600000 
C      52.85500000      27.85300000      30.57700000 
H      52.21000000      28.33700000      27.44100000 
H      51.71200000      25.74200000      28.19900000 
H      53.35300000      26.46600000      28.17900000 
H      51.46900000      26.20500000      30.57900000 
H      53.13700000      25.69700000      30.48100000 
H      52.49600000      28.14300000      31.53900000 
H      53.94200000      27.93600000      30.54100000 
N      49.79100000      27.22500000      27.17400000 
C      48.50800000      27.32600000      26.52400000 
C      47.67800000      26.08600000      26.81200000 
O      48.14200000      24.95000000      26.77600000 
C      48.65400000      27.56200000      24.99000000 
C      49.84100000      26.84700000      24.31000000 
C      49.44400000      26.41700000      22.88100000 
C      51.09300000      27.74300000      24.22600000 
H      50.43500000      26.57900000      26.75900000 
H      48.01600000      28.19000000      26.96900000 
H      47.72400000      27.26700000      24.54300000 
H      48.74000000      28.61900000      24.84500000 
H      50.06800000      25.93000000      24.85500000 
H      50.27500000      25.89200000      22.41500000 
H      48.59800000      25.75200000      22.88200000 
H      49.21500000      27.27700000      22.26200000 
H      51.94100000      27.15700000      23.86900000 
H      50.91900000      28.56400000      23.53900000 
H      51.35000000      28.15500000      25.20400000 
N      46.36300000      26.32600000      27.13000000 
C      45.50300000      25.30600000      27.73200000 
C      44.15900000      25.27200000      27.01400000 
O      43.61000000      26.35600000      26.68900000 
C      45.31800000      25.64700000      29.24100000 
C      44.43700000      24.61300000      29.95800000 
C      46.66800000      25.77100000      29.93900000 
H      46.06200000      27.26900000      27.23100000 
H      45.97100000      24.34400000      27.62400000 
H      44.81100000      26.60200000      29.29000000 
H      44.34700000      24.86100000      30.98500000 
H      43.45200000      24.57000000      29.54400000 
H      44.86800000      23.60800000      29.89200000 
H      46.51500000      25.91600000      31.00300000 
H      47.28100000      24.89200000      29.80800000 
H      47.22200000      26.62800000      29.58000000 
N      46.14900000      20.51400000      28.82900000 
C      47.07400000      21.46700000      28.26900000 
C      47.48400000      21.03300000      26.86500000 
O      47.68100000      19.83900000      26.60500000 
C      48.34000000      21.61200000      29.14800000 
C      48.16600000      22.26600000      30.51200000 
C      47.03900000      22.06400000      31.30700000 
C      49.16800000      23.06900000      30.99900000 
C      46.93400000      22.67600000      32.55700000 
C      49.10100000      23.64400000      32.25200000 
C      47.95600000      23.46300000      33.03500000 
H      46.44700000      19.75300000      29.36000000 
H      46.60000000      22.42900000      28.22000000 
H      48.79600000      20.63500000      29.23700000 
H      49.04800000      22.22300000      28.57600000 
H      46.23900000      21.45300000      30.98000000 
H      50.04600000      23.26700000      30.40200000 
H      46.05400000      22.51600000      33.14400000 
H      49.91800000      24.26200000      32.62100000 
H      47.89100000      23.92800000      34.00500000 
N      50.19500000      20.91400000      24.16100000 
C      51.57300000      20.91900000      23.66400000 
C      51.95900000      19.46100000      23.48600000 
O      52.31100000      18.99200000      22.37700000 
C      52.62500000      21.58700000      24.57400000 
C      52.83900000      23.11100000      24.36600000 
C      53.37700000      23.81400000      25.61100000 
N      52.51300000      23.54600000      26.76800000 
C      52.93400000      23.42600000      28.00700000 
N      54.14300000      23.84900000      28.34300000 
N      52.11500000      22.87800000      28.91700000 
H      49.72300000      20.01500000      24.14800000 
H      51.58900000      21.35900000      22.67300000 
H      52.34300000      21.39600000      25.59300000 
H      53.56300000      21.11000000      24.42300000 
H      53.55500000      23.27100000      23.58600000 
H      51.90800000      23.57900000      24.06500000 
H      54.36500000      23.40900000      25.83300000 
H      53.46600000      24.86400000      25.42500000 
H      51.53900000      23.40200000      26.57100000 
H      54.71700000      24.36200000      27.74800000 
H      54.51100000      23.63500000      29.26500000 
H      51.31100000      22.42200000      28.65900000 
H      52.39600000      22.87800000      29.89200000 
H      59.86105480      24.41326682      24.06337523 
H      60.32763472      23.19281955      27.45354049 
H      59.47773449      23.08504553      30.09737073 
H      58.78008405      22.42168734      33.98501381 
H      55.68309147      24.88841895      38.28168189 
H      52.34195176      24.27836472      37.68605238 
H      45.40665424      30.98048305      28.43497301 
H      49.06594907      33.10079461      36.75167085 
H      50.91659939      37.37164154      24.77209528 
H      43.72473940      24.39531708      26.80701016 
H      45.58280294      20.93674012      29.38641518 
H      47.59623632      21.71604969      26.14330330 
H      50.18344311      21.19097621      25.01724215 
H      51.93767181      18.83898056      24.26871126 
