174
Properties=species:S:1:pos:R:3 pbc="F F F"
N      49.96500000      35.99100000      82.12200000 
C      50.52000000      35.60700000      83.41800000 
C      49.52100000      34.71100000      84.01400000 
O      48.71000000      35.08100000      84.88900000 
C      50.87200000      36.84400000      84.27400000 
S      51.82900000      36.28800000      85.75300000 
H      49.31500000      36.72500000      82.12800000 
H      51.45200000      35.05500000      83.19600000 
H      51.37000000      37.51500000      83.74600000 
H      49.89400000      37.19300000      84.70000000 
H      52.61900000      35.33900000      85.16300000 
N      49.52800000      33.40400000      83.49600000 
C      48.55400000      32.48100000      83.94000000 
C      48.74800000      32.29100000      85.36500000 
O      47.76900000      31.88400000      86.13300000 
C      48.73100000      31.21300000      83.20600000 
O      49.05000000      31.56000000      81.89100000 
C      47.39900000      30.45900000      83.22900000 
H      50.11800000      33.21700000      82.72600000 
H      47.50400000      32.91100000      83.76200000 
H      49.55100000      30.65400000      83.64000000 
H      49.59700000      30.80800000      81.38900000 
H      47.58800000      29.38200000      82.78200000 
H      47.10300000      30.27600000      84.22300000 
H      46.69200000      30.92600000      82.66900000 
N      49.95900000      32.39300000      85.88700000 
C      50.36500000      32.04900000      87.17700000 
C      50.86000000      30.65100000      87.18100000 
O      51.71600000      30.32500000      86.43600000 
H      50.68700000      32.70800000      85.19300000 
H      51.18700000      32.74600000      87.48700000 
H      49.47200000      32.24400000      87.87300000 
N      50.20000000      29.83700000      88.05900000 
C      50.47600000      28.46100000      88.19000000 
C      51.77800000      28.33500000      89.04700000 
O      52.58300000      29.15000000      89.17100000 
C      50.51400000      27.60700000      86.97500000 
C      49.17600000      27.12600000      86.54700000 
C      48.75100000      25.95300000      87.40300000 
C      48.14100000      28.18000000      86.38400000 
H      49.50500000      30.21400000      88.54500000 
H      49.70800000      28.06700000      88.84200000 
H      50.97700000      28.28900000      86.12000000 
H      51.22200000      26.83000000      87.03400000 
H      49.30500000      26.69000000      85.50500000 
H      47.81200000      25.57700000      87.10900000 
H      49.46000000      25.19100000      87.44000000 
H      48.61200000      26.32800000      88.43600000 
H      47.22200000      27.80300000      86.03700000 
H      47.91400000      28.58400000      87.46300000 
H      48.44500000      29.02500000      85.82000000 
N      51.90200000      27.11500000      89.57400000 
C      53.05400000      26.82900000      90.41700000 
C      54.22800000      26.55000000      89.52200000 
O      55.46900000      26.78900000      89.95300000 
C      52.80900000      25.59300000      91.29100000 
H      51.20200000      26.39900000      89.53100000 
H      53.30800000      27.62200000      90.97700000 
H      53.66600000      25.33100000      91.84600000 
H      51.98600000      25.80300000      91.93000000 
H      52.50800000      24.74500000      90.64900000 
N      54.06400000      25.92000000      88.32000000 
C      55.07700000      25.38400000      87.55100000 
C      55.47600000      26.30900000      86.42600000 
O      56.50200000      26.15600000      85.83000000 
C      54.60300000      24.06800000      86.91300000 
C      54.23400000      23.07700000      87.94300000 
C      55.12800000      22.17800000      88.58100000 
C      52.91000000      22.90000000      88.51400000 
N      54.31700000      21.45200000      89.47200000 
C      53.04000000      21.82400000      89.49400000 
C      51.66400000      23.48200000      88.30400000 
C      51.97500000      21.43000000      90.21000000 
C      50.63000000      23.08100000      88.98000000 
C      50.66300000      21.99500000      90.06000000 
H      53.09800000      25.73300000      88.16000000 
H      55.95700000      25.25400000      88.14300000 
H      53.77700000      24.28700000      86.25400000 
H      55.45600000      23.71400000      86.31000000 
H      56.10600000      22.01500000      88.41300000 
H      54.71300000      20.73500000      90.04200000 
H      51.57300000      24.25700000      87.55100000 
H      52.03900000      20.64700000      90.92600000 
H      49.61600000      23.52200000      88.88700000 
H      49.90500000      21.74500000      90.51400000 
N      54.65900000      27.25900000      86.06500000 
C      54.80800000      28.20700000      85.01100000 
C      54.82600000      29.59100000      85.52600000 
O      55.09500000      29.83000000      86.73000000 
C      53.87800000      27.96000000      83.82400000 
C      53.90400000      26.45900000      83.44400000 
C      52.54800000      25.89400000      83.59100000 
O      52.26000000      25.23200000      84.63600000 
O      51.71300000      26.13900000      82.69100000 
H      53.74500000      27.39500000      86.64900000 
H      55.89300000      28.01400000      84.67000000 
H      52.91500000      28.23300000      84.08300000 
H      54.24400000      28.52800000      82.97200000 
H      54.20900000      26.34500000      82.37300000 
H      54.63200000      25.89500000      84.00400000 
N      54.45700000      30.61200000      84.61100000 
C      54.49800000      31.91300000      85.13000000 
C      53.79000000      32.74800000      84.07000000 
O      52.77100000      33.45900000      84.26400000 
C      55.91200000      32.43500000      85.33000000 
C      55.98000000      33.60500000      86.28000000 
C      55.84100000      34.96800000      86.05600000 
C      56.13800000      33.40100000      87.70900000 
N      56.00700000      35.59800000      87.23400000 
C      56.23000000      34.69400000      88.18500000 
C      56.33900000      32.32600000      88.48400000 
C      56.42700000      34.90300000      89.69200000 
C      56.58200000      32.44000000      89.92200000 
C      56.60500000      33.76600000      90.36000000 
H      54.20400000      30.32200000      83.76800000 
H      53.88900000      32.01900000      86.00100000 
H      56.45300000      31.64000000      85.72600000 
H      56.34400000      32.74000000      84.33800000 
H      55.71900000      35.43100000      85.16500000 
H      55.98300000      36.60800000      87.33700000 
H      56.28300000      31.29000000      88.05900000 
H      56.46900000      35.87500000      90.05200000 
H      56.67900000      31.66300000      90.45200000 
H      56.78700000      33.87600000      91.46000000 
N      54.41100000      32.60000000      82.81800000 
C      53.88700000      33.24600000      81.62600000 
C      53.63400000      32.10800000      80.58600000 
O      54.34400000      31.11900000      80.59300000 
C      54.94100000      34.13200000      81.02500000 
C      55.19300000      35.35800000      81.81800000 
C      56.19500000      35.69300000      82.64300000 
C      54.28000000      36.44700000      81.96000000 
N      56.04700000      36.83700000      83.20900000 
C      54.85600000      37.36400000      82.81800000 
C      53.06200000      36.73500000      81.31000000 
C      54.24700000      38.56000000      83.13600000 
C      52.45400000      37.98100000      81.59600000 
C      53.01800000      38.85000000      82.50100000 
H      55.14300000      32.02300000      82.74400000 
H      52.98600000      33.77400000      81.81000000 
H      55.88700000      33.54600000      80.93100000 
H      54.65700000      34.38600000      80.05800000 
H      57.18200000      35.03700000      82.81800000 
H      56.71100000      37.31200000      83.82800000 
H      52.64600000      36.07000000      80.63900000 
H      54.64400000      39.27100000      83.82100000 
H      51.54300000      38.18700000      81.11600000 
H      52.51100000      39.73800000      82.71800000 
N      52.73500000      32.41900000      79.73700000 
C      52.46400000      31.56900000      78.66900000 
C      52.26400000      32.46100000      77.38400000 
O      51.29100000      33.23200000      77.44500000 
C      51.25100000      30.66400000      78.91600000 
C      51.01600000      29.56200000      77.90500000 
C      49.77600000      28.72600000      78.33400000 
N      49.48200000      28.67600000      79.69700000 
C      50.23200000      27.96700000      80.55100000 
N      49.72200000      27.83000000      81.82000000 
N      51.41700000      27.44700000      80.20100000 
H      52.07700000      33.15600000      79.90100000 
H      53.35400000      30.94100000      78.42300000 
H      51.48700000      30.24700000      79.87000000 
H      50.36300000      31.36700000      79.01800000 
H      50.80200000      30.00900000      76.94000000 
H      51.87600000      28.96700000      77.82100000 
H      48.87300000      29.20200000      77.88100000 
H      49.86400000      27.79400000      77.91600000 
H      48.65500000      29.07800000      80.04900000 
H      48.89100000      28.10900000      82.12800000 
H      50.36900000      27.19300000      82.49600000 
H      51.73500000      27.56400000      79.42400000 
H      51.84800000      26.88700000      80.95400000 
H      50.63045901      36.25463459      81.57641673 
H      52.89454198      32.37509274      76.61261375 
