558
Properties=species:S:1:pos:R:3 pbc="F F F"
N      42.60200000      46.08900000      70.31600000 
C      42.84000000      45.01100000      71.26700000 
C      41.73200000      45.03200000      72.27500000 
O      41.58500000      46.06900000      72.88400000 
C      44.16300000      45.19700000      71.87800000 
C      45.33700000      45.11300000      70.91900000 
C      46.64400000      45.56600000      71.64300000 
C      45.56000000      43.82900000      70.34300000 
H      42.55100000      46.96200000      70.61400000 
H      42.79600000      44.01900000      70.67400000 
H      44.15500000      46.10100000      72.41000000 
H      44.31900000      44.39500000      72.63700000 
H      45.15600000      45.88500000      70.13700000 
H      47.46900000      45.56200000      70.98500000 
H      46.54500000      46.54100000      72.05500000 
H      46.83500000      44.88300000      72.48000000 
H      46.35400000      43.77800000      69.61100000 
H      45.71000000      43.04800000      71.05300000 
H      44.63700000      43.49100000      69.76400000 
N      40.24900000      42.91000000      75.67400000 
C      40.49800000      41.86900000      76.70000000 
C      39.33500000      41.79100000      77.54900000 
O      39.00000000      42.58000000      78.37400000 
C      41.70800000      42.27900000      77.50700000 
C      42.04400000      41.40000000      78.67000000 
N      42.79100000      41.88500000      79.71400000 
C      41.80000000      40.09900000      78.84700000 
C      42.99200000      40.90400000      80.55000000 
N      42.42700000      39.83400000      80.04600000 
H      40.16000000      43.89900000      76.02500000 
H      40.73600000      40.96000000      76.15400000 
H      42.54200000      42.48300000      76.87000000 
H      41.44800000      43.32400000      77.94700000 
H      41.26500000      39.34700000      78.25300000 
H      43.51200000      40.91100000      81.44700000 
H      42.39300000      38.89700000      80.50000000 
N      47.75600000      40.02500000      81.48600000 
C      48.66300000      39.73700000      80.35900000 
C      49.54900000      40.94000000      80.18000000 
O      49.22600000      42.05400000      80.45600000 
C      47.83400000      39.57800000      79.11300000 
H      47.29300000      40.91500000      81.52100000 
H      49.19400000      38.88900000      80.54300000 
H      48.47000000      39.27300000      78.26700000 
H      47.09500000      38.79000000      79.25700000 
H      47.35000000      40.46200000      78.81700000 
N      50.73600000      40.65100000      79.57700000 
C      51.57600000      41.67400000      79.03700000 
C      51.48700000      41.67600000      77.54700000 
O      51.51400000      40.63500000      76.97900000 
C      53.05700000      41.42700000      79.52100000 
C      53.28100000      41.87100000      80.89500000 
C      54.55300000      41.46400000      81.44100000 
O      55.34300000      40.71100000      80.76700000 
N      54.91200000      41.80000000      82.68000000 
H      50.89200000      39.71200000      79.28700000 
H      51.24400000      42.66800000      79.47300000 
H      53.24100000      40.38400000      79.37000000 
H      53.68300000      41.97300000      78.83600000 
H      53.26500000      42.98600000      80.96800000 
H      52.48200000      41.53800000      81.55200000 
H      54.28800000      42.35400000      83.19500000 
H      55.72100000      41.51400000      83.06500000 
N      51.44100000      42.89300000      77.06200000 
C      51.44900000      43.02800000      75.55700000 
C      52.60300000      43.75900000      75.17800000 
O      53.00900000      44.85400000      75.88600000 
C      50.26300000      43.95700000      75.06800000 
C      48.85500000      43.49000000      75.45300000 
C      48.56700000      42.22800000      75.97900000 
C      47.84300000      44.36500000      75.24500000 
C      47.30900000      41.85200000      76.27300000 
C      46.55700000      44.01400000      75.55600000 
C      46.36800000      42.72700000      76.08700000 
O      44.94600000      42.45700000      76.40100000 
H      51.43000000      43.71000000      77.58300000 
H      51.43000000      42.11000000      75.10400000 
H      50.42300000      44.94000000      75.52500000 
H      50.35400000      43.99000000      74.02300000 
H      49.38600000      41.46900000      76.12000000 
H      48.04800000      45.32300000      74.86200000 
H      47.07500000      40.89700000      76.65600000 
H      45.75700000      44.68000000      75.39500000 
H      44.85700000      41.64600000      76.87900000 
N      53.37600000      43.36400000      74.18200000 
C      54.49200000      44.07000000      73.58700000 
C      54.20100000      44.39300000      72.24700000 
O      53.74900000      43.52500000      71.44500000 
C      55.68700000      43.06500000      73.70100000 
C      56.11500000      42.68300000      75.05200000 
C      55.36700000      41.62300000      75.67100000 
C      57.09100000      43.32800000      75.69000000 
C      55.70400000      41.24800000      76.98600000 
C      57.41700000      42.95300000      76.96500000 
C      56.70200000      41.88200000      77.70200000 
O      57.06000000      41.59500000      78.92900000 
H      53.09000000      42.48600000      73.77500000 
H      54.75000000      44.92000000      74.25400000 
H      55.46200000      42.25300000      73.02900000 
H      56.55200000      43.59900000      73.19500000 
H      54.58600000      41.12200000      75.16000000 
H      57.59800000      44.08800000      75.24700000 
H      55.17800000      40.48700000      77.46300000 
H      58.20300000      43.45100000      77.54300000 
H      56.41900000      41.22400000      79.43800000 
N      54.36800000      45.62700000      71.90100000 
C      54.00100000      46.15100000      70.56500000 
C      55.10800000      47.03400000      70.08900000 
O      55.29800000      48.11400000      70.60400000 
C      52.66300000      46.93200000      70.60500000 
C      51.50700000      46.07500000      71.16900000 
C      52.28100000      47.45700000      69.26000000 
C      50.99500000      46.51900000      72.44900000 
H      54.75700000      46.27500000      72.47800000 
H      53.89600000      45.31800000      69.91700000 
H      52.82800000      47.71300000      71.31300000 
H      50.77600000      45.96000000      70.43600000 
H      51.89500000      44.99900000      71.26400000 
H      51.44600000      48.13300000      69.36800000 
H      53.07600000      48.01700000      68.81300000 
H      52.00100000      46.67000000      68.60600000 
H      50.11800000      45.89000000      72.79900000 
H      51.70200000      46.48000000      73.24300000 
H      50.64500000      47.49800000      72.35200000 
N      55.98500000      46.51800000      69.18000000 
C      57.20600000      47.10700000      68.84000000 
C      57.36300000      47.05800000      67.38500000 
O      57.20000000      45.96200000      66.79100000 
C      58.28300000      46.44500000      69.59100000 
O      58.09500000      46.58800000      70.88900000 
C      59.74400000      46.99900000      69.19900000 
H      55.75100000      45.54900000      68.82400000 
H      57.17700000      48.18800000      69.20400000 
H      58.32000000      45.38100000      69.29500000 
H      58.64900000      46.05000000      71.49500000 
H      60.46100000      46.56900000      69.82300000 
H      59.95400000      46.79500000      68.14600000 
H      59.67400000      48.07100000      69.33800000 
N      55.82500000      50.87600000      71.34500000 
C      54.76400000      51.50100000      72.00000000 
C      55.14100000      51.84400000      73.42100000 
O      56.16500000      51.34600000      73.96100000 
C      53.59300000      50.57000000      72.04800000 
C      52.24300000      51.25300000      72.04800000 
C      51.85800000      52.23800000      71.35800000 
C      51.10000000      50.80600000      72.85700000 
N      50.55300000      52.55300000      71.60300000 
C      50.06300000      51.67400000      72.47800000 
C      50.92600000      49.74900000      73.82400000 
C      48.77400000      51.47500000      73.13700000 
C      49.62500000      49.65400000      74.35000000 
C      48.59100000      50.54100000      73.94700000 
H      55.80700000      49.90900000      71.09000000 
H      54.50300000      52.35400000      71.49000000 
H      53.64900000      49.84700000      71.17200000 
H      53.67100000      49.84600000      72.94100000 
H      52.43300000      52.88900000      70.62900000 
H      50.00700000      53.30300000      71.15800000 
H      51.68100000      49.13900000      74.05900000 
H      47.98700000      52.17700000      72.79100000 
H      49.47400000      48.89600000      75.05800000 
H      47.64700000      50.39300000      74.43100000 
N      54.39900000      52.70700000      74.03200000 
C      54.72800000      53.04900000      75.44400000 
C      54.41300000      51.96200000      76.34900000 
O      55.27200000      51.61000000      77.31200000 
C      54.00200000      54.34500000      75.87200000 
C      52.48000000      54.25300000      75.90400000 
O      51.93800000      53.50900000      74.93300000 
O      51.88500000      54.84100000      76.74000000 
H      53.48200000      52.97500000      73.69800000 
H      55.75700000      53.21600000      75.48800000 
H      54.32100000      54.58800000      76.83800000 
H      54.28700000      55.12700000      75.19000000 
N      53.23700000      51.31500000      76.18300000 
C      52.90500000      50.24900000      77.07400000 
C      53.43800000      48.98400000      76.59900000 
O      52.64000000      47.98200000      76.16100000 
C      51.35500000      50.26300000      77.32300000 
C      50.94100000      50.19600000      78.78300000 
C      51.27400000      51.49200000      79.41300000 
N      50.51900000      52.60400000      78.94000000 
C      49.44800000      53.20400000      79.46700000 
N      49.07000000      52.84000000      80.71300000 
N      48.72400000      54.05900000      78.81900000 
H      52.65900000      51.60800000      75.57500000 
H      53.33700000      50.42500000      78.06900000 
H      50.92600000      51.07000000      76.83300000 
H      50.93200000      49.35700000      76.82300000 
H      49.90800000      50.00500000      78.89900000 
H      51.52500000      49.40500000      79.29600000 
H      51.13100000      51.44300000      80.54300000 
H      52.34800000      51.80200000      79.33900000 
H      50.78600000      53.00800000      78.06500000 
H      49.55900000      52.26100000      81.28300000 
H      48.21600000      53.29300000      81.12000000 
H      48.96500000      54.27600000      77.89800000 
H      47.97800000      54.54100000      79.20600000 
N      54.77000000      48.83000000      76.57000000 
C      55.46900000      47.86700000      75.98100000 
C      55.84800000      46.75000000      77.06100000 
O      56.98900000      46.67600000      77.50100000 
C      56.62600000      48.24400000      75.27000000 
C      57.19800000      47.15500000      74.44300000 
O      56.54700000      46.38800000      73.89600000 
N      58.60600000      47.14800000      74.36000000 
H      55.25000000      49.64600000      76.96800000 
H      54.76700000      47.27300000      75.27900000 
H      56.39500000      49.08200000      74.63500000 
H      57.41300000      48.64800000      76.00200000 
H      59.02100000      46.43100000      73.79700000 
H      59.15300000      47.77600000      74.83400000 
N      54.73600000      46.07800000      77.52100000 
C      54.92800000      45.11200000      78.59000000 
C      54.58200000      45.66200000      79.95000000 
O      55.40000000      46.25100000      80.59100000 
H      53.92700000      46.08100000      77.01500000 
H      54.25700000      44.22800000      78.29900000 
H      55.91400000      44.71400000      78.59000000 
N      53.28400000      45.41800000      80.24800000 
C      52.74900000      45.88700000      81.56200000 
C      51.60600000      44.96600000      81.82200000 
O      50.92600000      44.66800000      80.89000000 
C      52.28200000      47.31000000      81.50100000 
C      51.84400000      47.96000000      82.76700000 
C      53.02000000      48.00400000      83.75900000 
O      53.48300000      47.14700000      84.28600000 
N      53.61400000      49.28700000      83.77300000 
H      52.61800000      44.99700000      79.68500000 
H      53.55100000      45.80600000      82.33600000 
H      53.05900000      47.92000000      81.04800000 
H      51.47200000      47.34300000      80.78900000 
H      51.38400000      48.85200000      82.64500000 
H      51.13200000      47.27500000      83.30300000 
H      53.19100000      50.06800000      83.25900000 
H      54.38600000      49.41800000      84.29400000 
N      51.40700000      44.49100000      83.13100000 
C      50.35400000      43.53800000      83.30500000 
C      49.02900000      44.28800000      83.24900000 
O      48.81800000      45.27800000      83.98400000 
C      50.51800000      42.77300000      84.56400000 
C      50.59600000      43.68000000      85.82700000 
O      49.66700000      43.38400000      86.70900000 
O      51.42900000      44.51700000      85.81800000 
H      51.90300000      44.81800000      83.89200000 
H      50.33600000      42.86500000      82.43900000 
H      49.73700000      42.05700000      84.64200000 
H      51.46600000      42.25500000      84.49800000 
N      48.09600000      43.67200000      82.40400000 
C      46.78100000      44.32500000      82.25600000 
C      45.73000000      43.38600000      82.68600000 
O      45.72400000      42.16700000      82.20800000 
C      46.63100000      44.59400000      80.79300000 
C      47.60400000      45.67200000      80.27600000 
C      47.46700000      45.78000000      78.79500000 
C      47.49700000      46.96300000      80.97500000 
H      48.37100000      43.03400000      81.81900000 
H      46.72200000      45.17900000      82.87300000 
H      46.63000000      43.76800000      80.23700000 
H      45.58500000      45.07900000      80.67700000 
H      48.57500000      45.25100000      80.48300000 
H      48.14900000      46.47700000      78.36200000 
H      47.58400000      44.83800000      78.27900000 
H      46.43800000      46.15100000      78.52600000 
H      48.18900000      47.70700000      80.55000000 
H      46.49100000      47.38800000      80.81600000 
H      47.64500000      46.91800000      81.98600000 
N      40.19000000      45.61400000      79.33600000 
C      41.15000000      46.45500000      78.66000000 
C      40.77800000      46.51700000      77.24000000 
O      40.59100000      45.41700000      76.59300000 
C      42.57400000      45.91100000      78.95800000 
C      43.54900000      46.74600000      78.17100000 
C      44.08200000      47.84800000      78.78100000 
C      43.94200000      46.41400000      76.98500000 
C      45.03200000      48.62200000      78.15000000 
C      44.92600000      47.18400000      76.27900000 
C      45.47500000      48.28500000      76.83400000 
H      39.85600000      44.73700000      78.86200000 
H      40.99100000      47.45900000      79.14300000 
H      42.70100000      45.94700000      79.95700000 
H      42.56400000      44.88100000      78.53100000 
H      43.79800000      48.13700000      79.77900000 
H      43.56300000      45.53100000      76.45900000 
H      45.47000000      49.51000000      78.61300000 
H      45.22600000      46.88800000      75.28900000 
H      46.16800000      48.86800000      76.36900000 
N      42.45600000      48.75900000      73.73900000 
C      43.20200000      49.83800000      73.23700000 
C      43.32300000      49.72500000      71.68500000 
O      42.78800000      48.76300000      71.11400000 
C      44.66200000      49.82100000      73.80400000 
O      45.28400000      51.07800000      73.58300000 
C      45.44700000      48.64200000      73.27600000 
H      42.24400000      47.94700000      73.14800000 
H      42.82400000      50.72300000      73.44300000 
H      44.49600000      49.68300000      74.92500000 
H      45.16000000      51.66500000      74.24000000 
H      46.42800000      48.58200000      73.89300000 
H      44.95000000      47.78500000      73.31100000 
H      45.79200000      48.93500000      72.21900000 
N      55.82900000      43.89300000      65.57500000 
C      55.93700000      42.72500000      66.34000000 
C      54.99100000      42.76100000      67.56800000 
O      55.20300000      43.76100000      68.30200000 
C      57.38300000      42.55000000      66.83600000 
O      58.17800000      42.44800000      65.65000000 
H      56.24000000      44.72700000      65.94600000 
H      55.66600000      41.85300000      65.73000000 
H      57.67200000      43.46300000      67.38600000 
H      57.47600000      41.68100000      67.38900000 
H      59.11600000      42.69300000      65.79100000 
N      54.19600000      41.89200000      67.73300000 
C      53.22100000      41.91300000      68.83200000 
C      53.35200000      40.55500000      69.57900000 
O      53.26200000      39.46100000      68.95500000 
C      51.80300000      42.07200000      68.37000000 
C      50.80600000      41.86900000      69.47900000 
C      51.69100000      43.42300000      67.76700000 
H      54.08900000      41.11900000      67.04200000 
H      53.52300000      42.65500000      69.47000000 
H      51.58800000      41.30300000      67.56900000 
H      49.83100000      42.00700000      69.17400000 
H      50.88700000      40.87100000      69.93300000 
H      51.01100000      42.57400000      70.29400000 
H      50.65900000      43.59400000      67.35200000 
H      51.78300000      44.20300000      68.54300000 
H      52.35600000      43.63200000      67.01800000 
N      53.57600000      40.67400000      70.81700000 
C      53.61000000      39.48600000      71.73100000 
C      52.61200000      39.66200000      72.78900000 
O      52.68800000      40.81100000      73.56800000 
C      55.03200000      39.41900000      72.37900000 
C      55.10200000      38.50000000      73.51200000 
C      56.47900000      38.58300000      74.14900000 
C      56.50700000      37.96600000      75.56800000 
N      57.78600000      38.25800000      76.26300000 
H      53.65900000      41.52400000      71.26700000 
H      53.38700000      38.64300000      71.17800000 
H      55.70800000      39.08300000      71.58700000 
H      55.28900000      40.36900000      72.67500000 
H      54.37500000      38.72400000      74.26400000 
H      54.90800000      37.43400000      73.26200000 
H      57.21700000      38.10900000      73.57800000 
H      56.72800000      39.61100000      74.27400000 
H      55.73900000      38.44800000      76.21000000 
H      56.32400000      36.91200000      75.54300000 
H      57.87000000      37.79100000      77.12800000 
H      58.56600000      37.81600000      75.64300000 
H      57.97700000      39.19600000      76.30600000 
N      51.74900000      38.84700000      73.00200000 
C      50.77300000      38.84400000      74.05900000 
C      50.86700000      37.62200000      74.92800000 
O      50.72800000      36.51200000      74.35300000 
C      49.30600000      39.03900000      73.47200000 
C      49.23900000      40.39400000      72.86800000 
C      48.28300000      38.75800000      74.56000000 
C      48.00000000      40.63800000      72.03400000 
H      51.61300000      38.03400000      72.34400000 
H      50.96600000      39.70100000      74.67900000 
H      49.23400000      38.26000000      72.68200000 
H      49.29200000      41.11300000      73.65900000 
H      50.11300000      40.56700000      72.25200000 
H      47.33500000      38.94200000      74.18500000 
H      48.30200000      37.75700000      74.86100000 
H      48.46200000      39.38200000      75.39600000 
H      48.00500000      41.61100000      71.62500000 
H      47.94000000      39.96500000      71.27100000 
H      47.10100000      40.55000000      72.65100000 
N      51.23300000      37.76300000      76.07600000 
C      51.48500000      36.62500000      77.00500000 
C      50.69200000      36.73200000      78.19700000 
O      50.43400000      37.86900000      78.79500000 
C      52.94100000      36.47700000      77.38400000 
C      53.56800000      37.60300000      78.10200000 
C      54.87300000      37.16000000      78.69000000 
N      55.60400000      38.13100000      79.39700000 
C      56.76400000      37.92800000      79.83200000 
N      57.54300000      36.89500000      79.41700000 
N      57.40000000      38.83800000      80.68600000 
H      51.35000000      38.66400000      76.50600000 
H      51.15900000      35.75300000      76.45600000 
H      53.03700000      35.57200000      77.90900000 
H      53.49600000      36.33600000      76.44000000 
H      53.64100000      38.48600000      77.53200000 
H      52.93900000      37.87100000      78.98600000 
H      54.76000000      36.26000000      79.21000000 
H      55.50400000      36.90400000      77.77100000 
H      55.10100000      38.94200000      79.78400000 
H      57.07400000      36.19500000      78.94900000 
H      58.41800000      36.74700000      79.76200000 
H      56.87500000      39.59300000      80.98400000 
H      58.32000000      38.69500000      81.00900000 
N      50.15300000      35.62300000      78.70100000 
C      49.25700000      35.53600000      79.89600000 
C      50.17200000      35.25500000      81.07300000 
O      50.94500000      34.28400000      81.04500000 
C      48.26200000      34.50500000      79.70400000 
C      47.52200000      34.21700000      81.00000000 
C      46.25700000      33.43200000      80.81800000 
O      45.88200000      33.07600000      79.74600000 
O      45.65400000      33.16800000      81.95700000 
H      50.40500000      34.77000000      78.27100000 
H      48.86800000      36.50100000      79.97600000 
H      47.61100000      34.74700000      78.95900000 
H      48.76900000      33.52900000      79.41000000 
H      48.12100000      33.76100000      81.70000000 
H      47.23400000      35.24000000      81.48300000 
N      54.41100000      32.60000000      82.81800000 
C      53.88700000      33.24600000      81.62600000 
C      53.63400000      32.10800000      80.58600000 
O      54.34400000      31.11900000      80.59300000 
C      54.94100000      34.13200000      81.02500000 
C      55.19300000      35.35800000      81.81800000 
C      56.19500000      35.69300000      82.64300000 
C      54.28000000      36.44700000      81.96000000 
N      56.04700000      36.83700000      83.20900000 
C      54.85600000      37.36400000      82.81800000 
C      53.06200000      36.73500000      81.31000000 
C      54.24700000      38.56000000      83.13600000 
C      52.45400000      37.98100000      81.59600000 
C      53.01800000      38.85000000      82.50100000 
H      55.14300000      32.02300000      82.74400000 
H      52.98600000      33.77400000      81.81000000 
H      55.88700000      33.54600000      80.93100000 
H      54.65700000      34.38600000      80.05800000 
H      57.18200000      35.03700000      82.81800000 
H      56.71100000      37.31200000      83.82800000 
H      52.64600000      36.07000000      80.63900000 
H      54.64400000      39.27100000      83.82100000 
H      51.54300000      38.18700000      81.11600000 
H      52.51100000      39.73800000      82.71800000 
N      53.04600000      32.45300000      76.47500000 
C      52.78900000      33.32900000      75.24700000 
C      51.51000000      32.80500000      74.73400000 
O      51.29600000      31.51200000      74.55000000 
C      53.89900000      33.02800000      74.19100000 
O      55.09700000      33.19500000      74.92600000 
C      53.74000000      34.10400000      73.12000000 
H      53.94700000      31.93800000      76.45000000 
H      52.74300000      34.29300000      75.51400000 
H      53.79500000      32.10000000      73.83800000 
H      55.85500000      32.93000000      74.33200000 
H      54.48900000      33.89500000      72.32800000 
H      52.77700000      34.06900000      72.67500000 
H      53.93700000      35.05000000      73.51900000 
N      50.51500000      33.66900000      74.41000000 
C      49.29900000      33.27900000      74.01400000 
C      49.04100000      33.63200000      72.49000000 
O      48.51100000      32.81400000      71.75400000 
C      48.17500000      33.86300000      74.79000000 
C      46.79900000      33.35100000      74.33400000 
C      48.32000000      33.47200000      76.26000000 
H      50.73000000      34.68600000      74.61100000 
H      49.19600000      32.19300000      74.02000000 
H      48.14800000      34.93900000      74.75400000 
H      45.97200000      33.75000000      74.94600000 
H      46.59300000      33.61700000      73.31000000 
H      46.74900000      32.27300000      74.41600000 
H      47.50200000      33.76700000      76.86600000 
H      48.42600000      32.39000000      76.34600000 
H      49.21800000      33.89300000      76.67000000 
N      49.41900000      34.83000000      72.09800000 
C      49.25600000      35.26900000      70.77400000 
C      50.46300000      35.98000000      70.34000000 
O      50.91700000      36.91000000      70.98500000 
C      47.97000000      36.04300000      70.50100000 
C      47.48400000      36.01700000      69.17400000 
C      47.45500000      37.16900000      68.29900000 
C      47.01400000      34.77600000      68.64200000 
C      46.99700000      37.03600000      67.03200000 
C      46.54200000      34.66200000      67.34600000 
C      46.53600000      35.87000000      66.52900000 
O      46.02900000      35.71700000      65.24500000 
H      49.87900000      35.53200000      72.80600000 
H      49.15000000      34.36400000      70.20900000 
H      47.22500000      35.65300000      71.21100000 
H      48.16200000      37.09900000      70.87400000 
H      47.81300000      38.08800000      68.71100000 
H      47.03400000      33.94000000      69.25000000 
H      46.94900000      37.89900000      66.40200000 
H      46.18300000      33.79700000      66.95800000 
H      45.89600000      36.56800000      64.78400000 
N      51.06000000      35.59900000      69.20300000 
C      52.23300000      36.10200000      68.72100000 
C      52.22700000      35.94800000      67.17000000 
O      51.89800000      34.84700000      66.71500000 
C      53.39500000      35.29900000      69.23800000 
C      54.78600000      35.77200000      68.71500000 
C      55.93300000      34.97800000      69.13300000 
O      55.67600000      33.77900000      69.72900000 
O      57.08700000      35.40000000      68.97700000 
H      50.62700000      34.74200000      68.72200000 
H      52.32200000      37.18500000      68.94400000 
H      53.40900000      35.45100000      70.34000000 
H      53.28900000      34.25600000      69.02500000 
H      54.77400000      35.75600000      67.63800000 
H      54.98000000      36.83700000      68.98200000 
N      42.21600000      42.14100000      67.60100000 
C      42.55100000      40.98500000      68.29500000 
C      41.82700000      41.00500000      69.65500000 
O      42.04800000      41.97900000      70.35300000 
C      44.08600000      40.81000000      68.35500000 
C      44.61800000      40.49300000      67.00500000 
C      44.43000000      39.72400000      69.43100000 
C      46.12500000      40.49800000      66.87800000 
H      42.49500000      43.01200000      67.90000000 
H      42.14800000      40.08300000      67.72000000 
H      44.46900000      41.72200000      68.68000000 
H      44.26700000      39.46300000      66.74600000 
H      44.17300000      41.15600000      66.26700000 
H      45.50400000      39.62000000      69.43600000 
H      44.13400000      39.98100000      70.34000000 
H      44.00600000      38.80400000      69.13100000 
H      46.44600000      40.33100000      65.92800000 
H      46.47000000      41.46400000      67.16200000 
H      46.57400000      39.82100000      67.53800000 
N      40.23000000      38.90000000      73.03100000 
C      40.47300000      37.63800000      73.83100000 
C      39.36900000      37.51900000      74.83900000 
O      38.98100000      38.48000000      75.56900000 
C      41.80800000      37.73300000      74.53500000 
C      42.01100000      39.03300000      75.37100000 
C      42.89700000      37.68500000      73.43400000 
C      43.42500000      39.21500000      75.88000000 
H      40.21800000      39.74400000      73.47300000 
H      40.44500000      36.87300000      73.26800000 
H      41.92000000      36.87600000      75.18900000 
H      41.75700000      39.84600000      74.72000000 
H      41.30000000      38.97900000      76.18900000 
H      43.87500000      37.52300000      73.84100000 
H      42.65700000      36.82200000      72.80600000 
H      42.90400000      38.51600000      72.84400000 
H      43.40700000      40.16100000      76.50000000 
H      43.73600000      38.48000000      76.51600000 
H      44.14200000      39.37700000      75.10900000 
H      43.26469135      46.10433096      69.70722654 
H      41.16537908      44.21952021      72.41217622 
H      40.92757255      42.91755196      75.08282975 
H      38.71327475      41.01127305      77.47494869 
H      47.08792812      39.42201810      81.49563272 
H      57.59644459      47.88836692      66.87904111 
H      55.97279228      51.28320593      70.55611422 
H      45.03070015      43.68204613      83.33664307 
H      40.53663410      45.32967485      80.11638709 
H      40.67324390      47.40325593      76.78880538 
H      42.88425716      48.40008870      74.44453418 
H      43.82461850      50.42055774      71.17062824 
H      56.22525383      43.76704989      64.77680236 
H      50.15360621      35.85274713      81.87447366 
H      54.68092996      33.22640445      83.40515865 
H      52.89279909      32.19471336      79.92034092 
H      53.05667243      32.96694840      77.21374430 
H      52.48231538      36.72139175      66.58975931 
H      42.55001976      42.09780589      66.76639526 
H      41.22378208      40.24978231      69.91146518 
H      40.87207931      38.98814885      72.40652907 
H      38.89657498      36.64631697      74.96244608 
