 439 
 
N                11.5771215735        7.0735248596       22.9870979046
C                11.2379439158        8.4940468303       23.2043022974
C                11.3119527899        8.7944722783       24.7142647666
O                11.4191408262        7.8860270744       25.5240245939
C                 9.8080068163        8.7506329970       22.6974789225
O                 8.9795853445        7.7430229588       23.2302081385
H                10.9691539233        6.6466309736       22.2791320806
H                12.5803866126        6.9381418382       22.7504534337
H                11.3986725959        6.5145436026       23.8666877878
H                11.9363910916        9.1500713676       22.6785478335
H                 9.4947258745        9.7509159565       23.0076528231
H                 9.8028038905        8.7062187252       21.5990199043
H                 8.0554215778        8.0078601873       23.1915021883
N                11.2497956348       10.0902163204       25.0018681295
C                11.0660895430       10.6153248866       26.3357687411
C                 9.5954947961       11.0214932383       26.5362109211
O                 8.9498653059       11.5632791661       25.6524415948
C                11.8955421986       11.8959526967       26.5390010594
C                13.3752355226       11.6713177247       26.6874123026
C                13.8642080628       10.9540329986       27.7727867527
C                14.2877305862       12.2281572889       25.8000805698
C                15.2214070103       10.7918929490       27.9698585462
C                15.6492457802       12.0974138439       26.0021730326
C                16.1320005518       11.3745725011       27.0922923934
O                17.4724407436       11.2546824615       27.2677289098
H                11.2272201269       10.7554896400       24.2293923791
H                11.3435795382        9.8435700645       27.0579390272
H                11.7077516794       12.5579248788       25.6927880152
H                11.5188096287       12.3838889732       27.4431880386
H                13.1738003464       10.5160690069       28.4761358878
H                13.9452080261       12.7708894996       24.9325880609
H                15.5790237736       10.2279408678       28.8186739662
H                16.3369098887       12.5614178330       25.3115564348
H                17.6668169124       10.6028973109       27.9987067933
N                 9.1225594439       10.8039040199       27.7728245787
C                 7.8031899090       11.2249046219       28.1913287559
C                 7.9240320267       12.4644651210       29.0889595587
O                 8.5369390756       12.4094806241       30.1534140703
C                 7.1253362901       10.1064284660       29.0052914804
O                 7.8979372916        9.7249334041       30.1119149672
H                 9.6763402007       10.2929575001       28.4469522844
H                 7.2307710857       11.4502908299       27.2878611452
H                 6.1351349392       10.4638390908       29.3239857082
H                 7.0007479750        9.2183945949       28.3810005581
H                 8.1931694610       10.5467883483       30.5438179392
N                 7.3416721958       13.5748944478       28.6325747076
C                 7.2656366259       14.7932166081       29.4184997348
C                 6.1064971850       14.6788685030       30.4179270271
O                 5.0030976347       14.2644574327       30.0830101624
C                 7.0484261756       16.0113621796       28.5050717926
C                 8.2755377911       16.2175030592       27.6090212750
C                 6.7536033083       17.2526443532       29.3454783620
C                 7.9818038516       17.1038189019       26.4048089893
H                 6.7621460382       13.5350669404       27.8071554984
H                 8.2042863041       14.8962387320       29.9687134487
H                 6.1747128710       15.8003959417       27.8786607265
H                 9.0757716861       16.6600225901       28.2048793119
H                 8.6289394119       15.2458458187       27.2568136667
H                 6.7191099145       18.1367148271       28.7154351099
H                 5.7941482579       17.1589888553       29.8494694064
H                 7.5220571363       17.3915906862       30.1012077206
H                 8.8711070131       17.1937810465       25.7877857975
H                 7.1839755289       16.6757210849       25.8039045406
H                 7.6808255748       18.1011658636       26.7121029058
N                14.7739288083       21.4947112476       28.3373397140
C                15.8731731475       20.5760640021       28.1542168968
C                16.0010866535       20.0606478939       26.7146614548
O                17.0666148910       19.6016997522       26.3171699948
C                15.7155969017       19.3802493849       29.1009862278
C                16.0638203929       19.7574531175       30.5138461460
C                17.3865935160       19.9062452956       30.9111287894
C                15.0593972038       19.9863026943       31.4429853736
C                17.6958315846       20.2504800217       32.2147461205
C                15.3646546912       20.3393841281       32.7454763693
C                16.6862900812       20.4657070771       33.1376277167
H                13.9843751733       21.1708115450       28.8832669903
H                16.8107800904       21.1038422732       28.3779296677
H                14.6837649956       19.0304082808       29.0451403301
H                16.3674864476       18.5786294344       28.7517028595
H                18.1854035660       19.7580281485       30.1996495746
H                14.0324993908       19.8838548843       31.1308155719
H                18.7290438058       20.3582276417       32.5065029443
H                14.5735122953       20.5195529638       33.4563979600
H                16.9276151447       20.7309920316       34.1561879840
N                14.8925668572       20.1084422478       25.9779984312
C                14.7927713147       19.6172830411       24.6263345069
C                14.8518111353       20.7436383154       23.5873561854
O                14.4261064250       20.5927277210       22.4525853152
C                13.4870720775       18.8317930731       24.4622406377
C                13.2863755197       17.7309345267       25.5119771302
C                12.0005617160       16.9617677575       25.2141286515
C                14.4693641771       16.7681163296       25.5615873512
H                14.0481869360       20.5538339023       26.3247598353
H                15.6579389339       18.9715213843       24.4269518438
H                12.6607332347       19.5431922034       24.5294557811
H                13.4884475846       18.4063489333       23.4589747826
H                13.1864678102       18.2071733002       26.4938808260
H                11.7799498715       16.2680530489       26.0220432448
H                11.1659318504       17.6483864134       25.1022639708
H                12.1085225133       16.3897754005       24.2959935384
H                14.2504275255       15.9226341932       26.2094174310
H                14.6912517096       16.3787546543       24.5710487145
H                15.3602808146       17.2639887270       25.9397879677
N                22.4861491151       22.9751143948       23.6760145295
C                23.5889986479       22.0994395243       24.0240751230
C                24.8145126784       22.3563985935       23.1453321886
O                24.7212884500       22.4869134917       21.9335952780
C                23.1206476282       20.6398344198       23.8263824827
C                21.9779821097       20.3469033119       24.7414132659
C                20.6416776008       20.3851151198       24.4484786438
C                22.0762070776       20.0226486477       26.1288269513
N                19.9046355705       20.0905552081       25.5601282859
C                20.7519260481       19.8527541071       26.5989973587
C                23.1395489161       19.8533046167       27.0143120712
C                20.4873897734       19.5030774215       27.9169831965
C                22.8710767531       19.4776789408       28.3102293983
C                21.5575874610       19.3045457513       28.7606501699
H                22.0713534879       22.8257670981       22.7579123601
H                23.8231498681       22.2792412850       25.0759142725
H                22.8088422270       20.5249455499       22.7867234371
H                23.9528784214       19.9722012202       24.0478204845
H                20.1652552120       20.6014036786       23.5103503128
H                18.8999019350       20.0126949089       25.6147125316
H                24.1532092074       20.0301892488       26.6988421991
H                19.4687028558       19.3948141580       28.2514180212
H                23.6926078891       19.3148158831       28.9943825293
H                21.3876056813       19.0311973774       29.7921051790
N                20.1875949972       21.7102333988       19.2595582249
C                19.4101386367       20.6335164076       19.8570645583
C                20.3437111836       19.4584943474       20.1338860718
O                21.3489388289       19.2644973449       19.4764402693
C                18.3821048021       20.2467590245       18.7827841726
C                18.3214223476       21.4823018628       17.8859346596
C                19.7628396556       21.9847361415       17.8991500886
H                18.9345321703       20.9648154656       20.7873082366
H                18.7419677187       19.3847097906       18.2177586376
H                17.4221146969       19.9918363394       19.2236731871
H                17.9726720665       21.2508057595       16.8836084710
H                17.6649177167       22.2335184228       18.3239608624
H                20.3691223611       21.4146001157       17.1898966366
H                19.8235750693       23.0509212688       17.6861430689
N                19.9553969646       18.6375873375       21.1261696112
C                20.5947025990       17.3405940950       21.2762746610
C                19.5175949586       16.3512731078       21.7208927689
O                18.9559105729       15.6759534956       20.8576788113
C                21.8781604182       17.4375451308       22.1198094069
O                22.1395445153       16.1844221481       22.7117897060
H                19.0897606315       18.8027296215       21.6171133705
H                20.8757215642       17.0076566045       20.2682142140
H                22.6871314746       17.7265513446       21.4377318370
H                21.7597867331       18.2272754502       22.8711392527
H                22.9028392053       16.2713479607       23.2974011819
N                19.1563552312       16.2610000294       22.9993037450
C                18.0184640767       15.4068832072       23.3076874443
C                16.7771359341       16.0720163397       22.7123032806
O                16.6453943227       17.2906909304       22.7037563622
C                17.9478966558       15.3485363321       24.8411037280
C                19.2207768316       16.0568434363       25.3029907757
C                19.4936092517       17.0393349365       24.1718853688
H                18.1606257940       14.4270551538       22.8475112208
H                17.0685164162       15.8834545310       25.1945054077
H                17.8925794832       14.3226832455       25.1928217535
H                19.0970281235       16.5565278685       26.2607641723
H                20.0455708240       15.3492110419       25.3637259013
H                18.8092178483       17.8918408527       24.2399822695
H                20.5192711958       17.3822774327       24.1628596483
N                15.8702301619       15.2147479359       22.2453636436
C                14.5886644996       15.6111401943       21.7138992318
C                13.5963139233       14.5305940522       22.1305332643
O                13.9837229068       13.4458543235       22.5442992851
C                14.6035005647       15.7470654334       20.1767676579
C                15.6624450738       16.7599117242       19.7273746935
C                15.5668754077       16.9837524687       18.2281084106
O                15.9886224806       16.1838046178       17.4101984925
N                14.9360414028       18.1145403190       17.8639941588
H                16.0474780634       14.2103707179       22.3213790872
H                14.3281552273       16.5832585993       22.1504881649
H                14.8174427890       14.7814203702       19.7157141647
H                13.6217639342       16.0819844183       19.8395294765
H                15.5324852022       17.6995389817       20.2657980010
H                16.6574233382       16.3683742568       19.9505124880
H                14.6406649920       18.7991005840       18.5385020295
H                14.8633355031       18.3391175823       16.8845552923
N                12.2925582347       14.7839290041       21.9716765354
C                11.3220714032       13.7627274099       22.3409851281
C                11.7853759081       12.3952419126       21.8255286153
O                11.6661522578       11.3774979862       22.4913521852
C                 9.9207501169       14.1118050942       21.8050461703
C                 8.9696248304       12.9293175169       21.9866315289
C                 9.3633901674       15.3299364953       22.5386828394
H                11.9554912360       15.6807148958       21.6543617337
H                11.2734148477       13.6821940563       23.4359246012
H                10.0078551196       14.3379344333       20.7372413512
H                 7.9707575415       13.2080566358       21.6624388517
H                 9.2924764168       12.0706658246       21.4043609825
H                 8.9237589752       12.6349135673       23.0333032622
H                 8.3900268069       15.5875286797       22.1303397102
H                 9.2454609621       15.1013040701       23.5945663572
H                10.0106611043       16.1971883243       22.4454189419
N                12.2407321366       12.3853025790       20.5661973916
C                12.6058229177       11.1957362492       19.8422180820
C                14.0964692639       10.8075594015       19.8782038852
O                14.4567199778        9.7981165737       19.2896094482
C                12.2318690700       11.4173938413       18.3583986438
O                12.8135191074       12.6613734561       18.0058156295
C                10.7185055455       11.4152052499       18.1531000030
H                12.3445565590       13.2366934612       20.0302223615
H                12.0423128826       10.3478925122       20.2442307082
H                12.6893027262       10.6073608486       17.7745737109
H                12.6113904564       12.8546972229       17.0830302787
H                10.4810211855       11.6222811218       17.1125167737
H                10.3087773341       10.4414841881       18.4022035954
H                10.2505463644       12.1707550122       18.7789865170
N                14.9269348997       11.6196465008       20.5366918257
C                16.3690218095       11.4639361281       20.4798206710
C                16.9053744817       11.5069742603       21.9114357461
O                16.8226095619       12.5179212025       22.5995715734
C                17.0311451689       12.5821410214       19.6452058268
C                18.5258284473       12.3019755156       19.5127432257
C                16.3851609975       12.7014767542       18.2685156993
H                14.5729428570       12.3514657249       21.1429178606
H                16.5622802448       10.4953651836       20.0088384617
H                16.9106885947       13.5280505989       20.1835082215
H                19.0080486159       13.1414251593       19.0188841702
H                18.9907604869       12.1785880954       20.4889104373
H                18.6975385511       11.4048965482       18.9221340539
H                16.7694455201       13.5775416682       17.7518095349
H                16.6020064765       11.8197323884       17.6697705266
H                15.3046265455       12.8024950480       18.3420300015
N                17.4125828998       10.3633260497       22.3776537981
C                17.9231744189       10.2628347626       23.7329708529
C                19.2365795177       11.0461740180       23.8581210789
O                20.0109516748       11.1668951367       22.9177488741
C                18.1389596737        8.7895056572       24.0972447910
C                18.3285592113        8.6054029917       25.6016916213
C                18.2434577327        7.1400996655       26.0136031691
N                18.3626173762        7.0492793788       27.4586708566
C                18.3562266148        5.9101172774       28.1319252596
N                18.3639499197        4.7342488170       27.4828892965
N                18.5022562449        5.9327304735       29.4541868253
H                17.5662903250        9.5845730521       21.7559829145
H                17.1755346080       10.7080085669       24.3953967389
H                17.2521859123        8.2405415403       23.7780913629
H                19.0050588180        8.4115103347       23.5538498014
H                19.2899260442        9.0152580975       25.9064228349
H                17.5391696263        9.1436865721       26.1220090759
H                17.2787247958        6.7343973351       25.6887946460
H                19.0520019304        6.5743554882       25.5448532102
H                18.2615560567        7.9198518559       28.0085924619
H                18.0845627032        4.7025602782       26.5167321150
H                18.2764966646        3.8789199213       28.0081483557
H                18.4374879403        6.8170692462       29.9879398774
H                18.4194176698        5.0798534279       29.9795797927
N                19.4983840922       11.5363901149       25.0791169336
C                20.8074498567       12.1021941200       25.3492640395
C                21.8474830327       11.0757948408       24.8727766783
O                21.6576930659        9.8803788249       25.1033480147
C                20.9526018952       12.3393492603       26.8623776458
C                22.0668334054       13.2980458464       27.1834578663
C                23.3928307754       12.8799436570       27.1683446022
C                21.7852946608       14.6253540396       27.4780688592
C                24.4149143560       13.7757393809       27.4286241499
C                22.8052569746       15.5173838792       27.7623383614
C                24.1231653518       15.0941738372       27.7371727485
H                18.8336234850       11.4621949841       25.8417160433
H                20.9177766086       13.0380230700       24.7954581992
H                20.0149067352       12.7575493586       27.2305719370
H                21.1383165098       11.3749176273       27.3376044841
H                23.6374160785       11.8560163211       26.9355400576
H                20.7628705484       14.9621900691       27.5107029311
H                25.4418372021       13.4418334336       27.3784619708
H                22.5683395763       16.5439524136       27.9990387836
H                24.9289070987       15.7732096083       27.9678095368
N                22.9517725686       11.5258860393       24.2807293489
C                24.0605580619       10.6398524716       23.9451014774
C                24.3747101582        9.6390709586       25.0492508696
O                24.1820413424        9.8689853873       26.2313361839
C                25.2326133704       11.6071274424       23.7642391252
C                24.5574737418       12.8154359033       23.1224907087
C                23.2187196632       12.8957722703       23.8587065600
H                23.8519230779       10.1027591780       23.0110161633
H                25.6324254346       11.8677263459       24.7479116979
H                26.0415253629       11.1810251914       23.1714274445
H                25.1467231866       13.7201383743       23.2426744841
H                24.4029556084       12.6293173410       22.0602156243
H                23.3056762631       13.5439751034       24.7347367775
H                22.4226123578       13.2525939488       23.2012471905
N                24.3870832143       11.2356203665       29.8674947259
C                23.0397074767       10.6923495483       29.7972542218
C                22.4217585744       10.6213560692       31.1937480220
O                21.3003747293       11.0471927928       31.4309637243
C                23.0765189261        9.2998522001       29.1649520630
C                21.7068454090        8.6188834501       29.1614505558
C                21.7500149537        7.3054113596       28.3879934804
N                21.7418335508        7.5636229092       26.9579724224
C                21.7792753038        6.6327502296       26.0172401057
N                21.8006669950        5.3352503828       26.3296926392
N                21.6595609979        7.0095352202       24.7430312833
H                25.0425307938       10.9312889079       29.1627871144
H                22.4079863996       11.3674963459       29.2054477320
H                23.4462929225        9.4089859944       28.1451633994
H                23.7896384558        8.6807872553       29.7114453301
H                21.3890447783        8.4177266063       30.1851482283
H                20.9561455674        9.2753102689       28.7190963459
H                22.6630958456        6.7669254164       28.6635189458
H                20.8724363907        6.7082107624       28.6485617724
H                21.7496157066        8.5289096710       26.6431520265
H                21.9943773969        5.0420673201       27.2737479808
H                21.9045910923        4.6471166638       25.5994391678
H                21.6756412782        8.0016076077       24.5343964172
H                21.8361377870        6.3643678041       23.9903148280
N                21.9058644408       13.9662931794       33.0706473405
C                20.8624953202       14.6504504488       32.3319873456
C                19.4803101432       14.1119513233       32.6998857710
O                18.5765604337       14.8735515737       33.0570033631
C                21.0794918233       14.4628054352       30.8258824947
C                19.8561286504       14.8784962126       30.0568471436
C                19.5328124687       16.2189896213       29.9046088001
C                19.0229888325       13.9223329568       29.4929547633
C                18.4043680765       16.5860519675       29.1955024817
C                17.8844054144       14.2879588705       28.7972988839
C                17.5735401167       15.6269087803       28.6438991700
H                22.6361200733       13.5102222459       32.5282771054
H                20.8603203616       15.7168360425       32.5951501780
H                21.9442917667       15.0484813341       30.5098722146
H                21.2906689183       13.4092922975       30.6405801127
H                20.1739569461       16.9764660947       30.3278327084
H                19.2874454097       12.8808012179       29.5906094736
H                18.1792858525       17.6310487179       29.0648564408
H                17.2456101109       13.5333562609       28.3683719753
H                16.6960538095       15.9207809251       28.0893812921
N                19.3033416006       12.8045333835       32.5762044799
C                18.0147941164       12.2082587320       32.8758628766
C                17.6493467985       12.4827486503       34.3351844994
O                16.5236648868       12.8521286348       34.6526998244
C                18.0080648745       10.7283272892       32.4803709839
C                17.8149518419       10.6396198540       30.9700904812
C                18.0423947129        9.2822902700       30.2912416847
O                18.2616162603        8.2549468896       30.9494931625
O                17.9842577141        9.3092008525       29.0315273152
H                20.0532193310       12.1900371805       32.2683204682
H                17.2362109619       12.7164445439       32.2891715364
H                18.9447130770       10.2590032593       32.7847269923
H                17.1832372232       10.2230794541       32.9829459141
H                16.7944855299       10.9550097286       30.7342336467
H                18.4964735153       11.3331963081       30.4777230707
N                14.4969298860       14.7836732878       34.8277247132
C                13.4325999007       13.8757827644       35.1609320232
C                12.8029639022       13.2002143798       33.9421214873
O                11.7671283848       12.5521894459       34.0453124750
H                15.4248684687       14.3766766818       34.8043999968
H                13.8298411307       13.0991562710       35.8170295479
H                12.6421653974       14.4132012420       35.6918885733
N                13.4176854873       13.3983408658       32.7736921748
C                12.9189034634       12.7574159691       31.5764240558
C                13.3365374333       11.2815722275       31.5858537341
O                14.4924876713       10.9279906083       31.7584369939
C                13.4561618967       13.4696748575       30.3404571259
C                12.8103286092       14.8459918249       30.1411757760
C                13.6598483329       15.6571101306       29.1682041062
C                11.3825865743       14.7223393785       29.6153342578
H                14.3306125439       13.8368972271       32.7155756787
H                11.8256697987       12.8095851332       31.6136696698
H                14.5367815208       13.5797774968       30.4556586576
H                13.2863648499       12.8481146097       29.4592387303
H                12.7878727039       15.3573785190       31.1094731685
H                13.2162333893       16.6315150553       28.9782090881
H                14.6604659929       15.8001583781       29.5672365459
H                13.7425087090       15.1192936997       28.2259716176
H                10.9276353798       15.7047159274       29.5211517015
H                11.3857681249       14.2516303188       28.6341662884
H                10.7557745468       14.1293607414       30.2764352823
N                12.3138175710       10.4318833457       31.4177627427
C                12.4525733846        8.9915062334       31.3877004544
C                12.3113913677        8.5541373657       29.9263320519
O                11.4397089200        9.0270514494       29.2070489317
C                11.3765896391        8.3109936813       32.2526495699
C                11.5345693769        6.7922025780       32.2003957793
C                11.4664037355        8.8029243276       33.6953821777
H                11.3781566980       10.7842109847       31.2833608797
H                13.4520891573        8.7593104386       31.7679488751
H                10.3989946301        8.5797996294       31.8363497911
H                10.7579061961        6.3222649702       32.7968479398
H                11.4486770273        6.4131802536       31.1840676826
H                12.4999871734        6.4942853320       32.6037488779
H                10.6715673812        8.3601754445       34.2886835201
H                12.4210575482        8.5160389334       34.1312822542
H                11.3766144087        9.8855788559       33.7573963305
N                13.2536419343        7.7070764429       29.4987814492
C                13.2660373374        7.1344173043       28.1706528486
C                12.5989645184        5.7513223207       28.1785414483
O                12.8777119908        4.9173723043       29.0353660186
C                14.7178465336        6.9542271709       27.6942054363
C                14.7409911758        6.4305721344       26.2980658536
C                14.7492202979        5.1194003365       25.9129040427
C                14.6866281444        7.2025943811       25.0974873020
N                14.7488596427        5.0219149644       24.5515943260
C                14.6849439281        6.2752149544       24.0220685679
C                14.6361554430        8.5710868633       24.8312720597
C                14.6493246178        6.7035343879       22.6953262732
C                14.5924190152        8.9881409903       23.5186150016
C                14.6095230428        8.0691117782       22.4614294045
H                13.8510170600        7.2560290635       30.1755315171
H                12.7172590695        7.8069619673       27.5087021600
H                15.2265879656        7.9169124387       27.7488129011
H                15.2031535579        6.2477272351       28.3712197681
H                14.7504134165        4.2390613214       26.5257687801
H                14.5922478672        4.1603679037       24.0547623565
H                14.6261250116        9.2843704805       25.6389484719
H                14.6808062333        5.9964240775       21.8805441476
H                14.5479052573       10.0433211737       23.2981254628
H                14.5918428910        8.4297427937       21.4440649234
N                11.7656115636        5.5533274152       27.1612154331
C                11.2088491350        4.2743089055       26.7941831436
C                11.6552470063        3.9834770536       25.3234346657
O                11.3144458777        4.8519298685       24.4800591311
C                 9.6688014810        4.2782054140       26.8599901953
O                 9.1246399328        5.2353213490       25.9812933310
C                 9.1714629665        4.5681127208       28.2736073569
O                12.3040560802        2.9614018702       25.0990702410
H                11.5526532794        6.3145364891       26.5257633227
H                11.6127060549        3.5094163679       27.4632925921
H                 9.3320013883        3.2661624507       26.5579973755
H                 9.7196812278        5.2775074861       25.2037114450
H                 8.0870286599        4.5190684183       28.2945610465
H                 9.5807357345        3.8452579985       28.9733793184
H                 9.4821835207        5.5680329423       28.5657420930
H                 6.2407887134       14.9462901740       31.3721028156
H                15.0676073931       22.2347964455       28.7568951796
H                15.2463892900       21.6293400741       23.8319793130
H                21.8196345045       22.8700907596       24.2716052529
H                25.7221954448       22.4216758845       23.5598811855
H                20.1394768470       22.4413457431       19.7822047436
H                24.7576922301        8.7444526544       24.8190708915
H                24.3537562680       12.1320339613       29.7944743070
H                22.9376661079       10.2167577371       31.9488239166
H                22.3326906797       14.5541351474       33.6019299231
H                18.3345111768       12.3618087274       35.0534625164
H                14.3510079025       15.1305617153       34.0101825469
