480
Properties=species:S:1:pos:R:3 pbc="F F F"
N      42.59300000      46.05300000      70.27600000 
C      42.83600000      44.98400000      71.22700000 
C      41.75300000      45.03100000      72.26800000 
O      41.58400000      46.08100000      72.90200000 
C      44.17800000      45.17700000      71.89200000 
C      45.35500000      45.14300000      70.92800000 
C      46.63200000      45.56900000      71.65400000 
C      45.53300000      43.79300000      70.31300000 
H      42.55000000      46.96800000      70.62000000 
H      42.79000000      44.04000000      70.68500000 
H      44.14900000      46.11400000      72.41200000 
H      44.31900000      44.39500000      72.63900000 
H      45.16200000      45.87500000      70.14400000 
H      47.47300000      45.55800000      70.98200000 
H      46.53700000      46.56100000      72.06100000 
H      46.83400000      44.88700000      72.47400000 
H      46.35800000      43.77600000      69.61100000 
H      45.72000000      43.04500000      71.07000000 
H      44.63900000      43.49200000      69.76600000 
N      41.07000000      43.92200000      72.46800000 
C      40.00800000      43.81400000      73.44500000 
C      40.31300000      42.65700000      74.37500000 
O      40.56500000      41.56300000      73.89900000 
C      38.69300000      43.43200000      72.76200000 
C      38.41300000      44.31900000      71.57100000 
O      38.35400000      45.56900000      71.75700000 
O      38.23200000      43.74800000      70.47000000 
H      41.25100000      43.12500000      71.87900000 
H      39.92300000      44.74400000      73.96600000 
H      38.77000000      42.42300000      72.42200000 
H      37.88600000      43.51500000      73.47200000 
N      40.24100000      42.90500000      75.68000000 
C      40.51300000      41.88300000      76.67500000 
C      39.32100000      41.72000000      77.55200000 
O      38.99300000      42.59500000      78.36100000 
C      41.69300000      42.31700000      77.52300000 
C      42.03400000      41.41000000      78.65000000 
N      42.77600000      41.89700000      79.72000000 
C      41.79600000      40.09200000      78.84600000 
C      42.97800000      40.89500000      80.54400000 
N      42.40700000      39.78700000      80.04900000 
H      40.15000000      43.85500000      76.01500000 
H      40.72900000      40.97400000      76.14800000 
H      42.54300000      42.47400000      76.87900000 
H      41.43400000      43.29300000      77.94300000 
H      41.27600000      39.35800000      78.26700000 
H      43.50400000      40.91200000      81.45800000 
H      42.39800000      38.89300000      80.50000000 
N      38.67800000      40.54600000      77.45400000 
C      37.62400000      40.17900000      78.37300000 
C      37.97000000      38.78600000      78.88400000 
O      37.34600000      37.78500000      78.46100000 
C      36.25000000      40.21200000      77.73400000 
O      36.19300000      39.43900000      76.55100000 
H      38.91700000      39.89700000      76.72000000 
H      37.65100000      40.85700000      79.18200000 
H      35.53500000      39.89200000      78.44100000 
H      36.04300000      41.23200000      77.44300000 
H      36.51700000      38.55400000      76.71500000 
N      38.92800000      38.73000000      79.76300000 
C      39.40400000      37.48600000      80.32200000 
C      39.77400000      37.70400000      81.77100000 
O      40.07100000      38.82500000      82.19100000 
H      39.37300000      39.56700000      80.08000000 
H      38.67400000      36.74700000      80.21600000 
H      40.30600000      37.15800000      79.81300000 
N      39.79100000      36.62500000      82.53600000 
C      40.03500000      36.71000000      83.94300000 
C      41.50800000      36.89200000      84.29000000 
O      41.81900000      37.07700000      85.48200000 
C      39.47600000      35.46600000      84.63900000 
H      39.47300000      35.75900000      82.15200000 
H      39.54600000      37.59200000      84.34100000 
H      39.70800000      35.49700000      85.68100000 
H      38.41300000      35.44800000      84.50200000 
H      39.91300000      34.59000000      84.19900000 
N      42.38000000      36.79300000      83.33300000 
C      43.79300000      36.83700000      83.54200000 
C      44.36400000      38.23200000      83.38600000 
O      43.70100000      39.16800000      82.91200000 
C      44.50700000      35.90600000      82.58600000 
C      44.25400000      36.13100000      81.12400000 
C      45.22300000      36.73100000      80.30200000 
C      43.10700000      35.64700000      80.52700000 
C      45.05600000      36.78700000      78.95700000 
C      42.91400000      35.71900000      79.16000000 
C      43.91700000      36.24900000      78.36700000 
O      43.81900000      36.23200000      76.99900000 
H      42.05600000      36.68400000      82.38400000 
H      43.99400000      36.52400000      84.54700000 
H      45.57600000      35.95000000      82.76800000 
H      44.21500000      34.89500000      82.81900000 
H      46.11300000      37.09400000      80.75100000 
H      42.35300000      35.15900000      81.11400000 
H      45.81200000      37.19800000      78.31200000 
H      42.02700000      35.32500000      78.70600000 
H      43.02500000      35.87000000      76.67600000 
N      45.63800000      38.35400000      83.74700000 
C      46.45400000      39.49000000      83.38400000 
C      47.41300000      39.06700000      82.32200000 
O      47.89300000      37.90900000      82.27800000 
C      47.20500000      40.08700000      84.57100000 
C      46.31900000      41.03000000      85.33200000 
C      47.81600000      39.02300000      85.45600000 
H      46.10900000      37.56000000      84.08500000 
H      45.80200000      40.22900000      82.97900000 
H      48.02000000      40.68100000      84.13500000 
H      46.84100000      41.43000000      86.20400000 
H      46.01300000      41.85200000      84.72200000 
H      45.43200000      40.51000000      85.67900000 
H      48.47700000      39.47000000      86.18000000 
H      47.01900000      38.50800000      85.99500000 
H      48.35300000      38.30200000      84.87900000 
N      47.76000000      40.02000000      81.47100000 
C      48.64600000      39.75700000      80.35800000 
C      49.55700000      40.93200000      80.16600000 
O      49.20800000      42.07400000      80.46700000 
C      47.83400000      39.56500000      79.08800000 
H      47.29500000      40.90500000      81.52300000 
H      49.20500000      38.88400000      80.56500000 
H      48.47200000      39.24400000      78.27400000 
H      47.08400000      38.80800000      79.26100000 
H      47.34500000      40.48000000      78.81400000 
N      51.43100000      42.88500000      77.02100000 
C      51.43600000      43.05900000      75.57700000 
C      52.66300000      43.80500000      75.20800000 
O      52.98600000      44.84300000      75.86200000 
C      50.27100000      43.93300000      75.09700000 
C      48.88500000      43.46700000      75.45700000 
C      48.59700000      42.21200000      75.96700000 
C      47.84500000      44.35100000      75.25200000 
C      47.30200000      41.85700000      76.27500000 
C      46.54700000      44.00700000      75.55100000 
C      46.30100000      42.74900000      76.08100000 
O      44.96900000      42.46500000      76.40200000 
H      51.44200000      43.70400000      77.57400000 
H      51.42200000      42.10200000      75.11900000 
H      50.41400000      44.92600000      75.50600000 
H      50.36500000      44.00500000      74.03000000 
H      49.38500000      41.48900000      76.11900000 
H      48.05500000      45.32400000      74.86800000 
H      47.08500000      40.89000000      76.67000000 
H      45.74400000      44.69000000      75.40100000 
H      44.87000000      41.64400000      76.87200000 
N      53.25200000      51.30200000      76.20000000 
C      52.86500000      50.24100000      77.10700000 
C      53.41200000      48.94500000      76.59000000 
O      52.68500000      48.01000000      76.16300000 
C      51.34900000      50.23400000      77.31100000 
C      50.96600000      50.20400000      78.78100000 
C      51.28400000      51.51200000      79.45900000 
N      50.49300000      52.60900000      78.93300000 
C      49.43400000      53.17500000      79.49000000 
N      49.05500000      52.86400000      80.72600000 
N      48.72900000      54.06100000      78.81200000 
H      52.65800000      51.61700000      75.53800000 
H      53.34600000      50.42200000      78.05800000 
H      50.92400000      51.08900000      76.83200000 
H      50.93700000      49.36500000      76.81200000 
H      49.91700000      49.99700000      78.89100000 
H      51.52000000      49.41200000      79.28100000 
H      51.12700000      51.43400000      80.53400000 
H      52.32700000      51.79000000      79.33300000 
H      50.77200000      52.98100000      78.05300000 
H      49.56900000      52.26800000      81.31000000 
H      48.23300000      53.28800000      81.11600000 
H      48.95800000      54.27300000      77.87400000 
H      47.97100000      54.54100000      79.22300000 
N      53.29100000      45.44100000      80.28900000 
C      52.77200000      45.88700000      81.57500000 
C      51.62300000      44.96400000      81.85400000 
O      50.90500000      44.65000000      80.90500000 
C      52.27900000      47.32200000      81.48200000 
C      51.84300000      47.93200000      82.80300000 
C      53.06000000      48.03700000      83.72800000 
O      53.46400000      47.14200000      84.29900000 
N      53.59100000      49.28800000      83.76400000 
H      52.63200000      45.01000000      79.69300000 
H      53.54600000      45.80300000      82.32600000 
H      53.07100000      47.92000000      81.05200000 
H      51.45200000      47.34500000      80.79000000 
H      51.38100000      48.87300000      82.63500000 
H      51.12800000      47.28100000      83.30100000 
H      53.19600000      50.06400000      83.27300000 
H      54.40400000      49.42900000      84.29200000 
N      51.41300000      44.49300000      83.09300000 
C      50.34400000      43.54900000      83.28600000 
C      49.01500000      44.26800000      83.26000000 
O      48.80400000      45.27000000      83.96700000 
C      50.52100000      42.77100000      84.56800000 
C      50.55000000      43.64800000      85.80700000 
O      49.68500000      43.38600000      86.70700000 
O      51.42000000      44.53200000      85.84800000 
H      51.89300000      44.82300000      83.89500000 
H      50.35400000      42.86400000      82.45200000 
H      49.73800000      42.04100000      84.64700000 
H      51.47000000      42.25600000      84.50600000 
N      48.10000000      43.70800000      82.44800000 
C      46.79600000      44.31000000      82.26300000 
C      45.73400000      43.34300000      82.67500000 
O      45.72900000      42.17300000      82.20300000 
C      46.59400000      44.64200000      80.79800000 
C      47.61000000      45.64900000      80.27600000 
C      47.44600000      45.78200000      78.77900000 
C      47.47900000      46.98300000      80.96900000 
H      48.38600000      43.03800000      81.81600000 
H      46.73800000      45.18000000      82.88000000 
H      46.63000000      43.74700000      80.23400000 
H      45.58900000      45.07100000      80.68200000 
H      48.59100000      45.24700000      80.47900000 
H      48.15600000      46.48300000      78.36800000 
H      47.58100000      44.83100000      78.28000000 
H      46.44700000      46.14500000      78.53600000 
H      48.18800000      47.69900000      80.55900000 
H      46.48000000      47.38500000      80.81000000 
H      47.64900000      46.91200000      82.02000000 
N      44.84300000      43.79400000      83.49000000 
C      43.67300000      43.07600000      83.94800000 
C      42.49200000      43.49100000      83.12900000 
O      42.39900000      44.66100000      82.70700000 
C      43.35600000      43.42000000      85.40700000 
O      44.55500000      43.50900000      86.17300000 
C      42.43100000      42.38700000      86.02000000 
H      44.90100000      44.73300000      83.80900000 
H      43.85900000      42.01000000      83.83400000 
H      42.93300000      44.39400000      85.43500000 
H      44.87400000      42.66000000      86.46700000 
H      42.29500000      42.62300000      87.07300000 
H      41.45700000      42.42300000      85.54000000 
H      42.84100000      41.41800000      85.92500000 
N      41.51900000      42.61200000      82.92000000 
C      40.32300000      43.04000000      82.25700000 
C      39.57000000      44.01100000      83.14100000 
O      39.70000000      44.03400000      84.33500000 
C      39.44600000      41.82300000      81.99100000 
H      41.61200000      41.67900000      83.22700000 
H      40.60900000      43.50800000      81.33300000 
H      38.53800000      42.11200000      81.49800000 
H      39.99500000      41.13300000      81.35400000 
H      39.22200000      41.32900000      82.90100000 
N      38.70000000      44.81000000      82.48400000 
C      38.60500000      44.96400000      81.06600000 
C      39.66600000      45.88100000      80.55300000 
O      40.03100000      46.88100000      81.19700000 
C      37.23300000      45.54600000      80.70200000 
C      37.17000000      45.81000000      79.26200000 
N      37.39800000      44.80500000      78.33100000 
C      37.13100000      46.96300000      78.55000000 
C      37.50200000      45.36800000      77.11900000 
N      37.34200000      46.66500000      77.18800000 
H      38.20800000      45.45100000      83.05200000 
H      38.69500000      44.00300000      80.58100000 
H      36.47800000      44.83000000      81.02700000 
H      37.08700000      46.45900000      81.25100000 
H      37.61300000      43.85400000      78.51600000 
H      37.00300000      47.95300000      78.88800000 
H      37.73300000      44.81700000      76.22400000 
N      40.16800000      45.59600000      79.34500000 
C      41.11700000      46.45800000      78.68700000 
C      40.78800000      46.50400000      77.23000000 
O      40.58000000      45.43600000      76.61000000 
C      42.53700000      45.92600000      78.91900000 
C      43.56400000      46.74200000      78.19100000 
C      44.09900000      47.86500000      78.79700000 
C      43.96600000      46.40400000      76.94200000 
C      45.04100000      48.63400000      78.14100000 
C      44.91400000      47.17000000      76.26200000 
C      45.45800000      48.28500000      76.85900000 
H      39.87000000      44.76100000      78.86800000 
H      41.01600000      47.44400000      79.12500000 
H      42.69900000      45.92700000      79.96700000 
H      42.55800000      44.90400000      78.55600000 
H      43.78900000      48.14100000      79.78700000 
H      43.56100000      45.53100000      76.45400000 
H      45.46100000      49.50400000      78.61600000 
H      45.21800000      46.89400000      75.27500000 
H      46.18300000      48.86800000      76.35800000 
N      40.81500000      47.69700000      76.66300000 
C      40.76700000      47.90900000      75.23100000 
C      41.83100000      48.90100000      74.89000000 
O      42.05100000      49.84500000      75.64900000 
C      39.40700000      48.48500000      74.81100000 
O      38.43300000      47.45100000      74.84300000 
C      39.41100000      49.02700000      73.40900000 
H      40.99900000      48.48300000      77.19500000 
H      40.91900000      46.97400000      74.70600000 
H      39.15700000      49.26400000      75.51200000 
H      38.03600000      47.31400000      75.73900000 
H      38.40800000      49.31900000      73.13900000 
H      40.05700000      49.90600000      73.32200000 
H      39.76300000      48.27800000      72.70800000 
N      42.44300000      48.75700000      73.72600000 
C      43.24100000      49.82900000      73.21400000 
C      43.32500000      49.71700000      71.70800000 
O      42.79500000      48.76800000      71.10400000 
C      44.64700000      49.80300000      73.83000000 
O      45.29000000      51.05900000      73.57800000 
C      45.48400000      48.67700000      73.28600000 
H      42.25000000      47.95500000      73.15000000 
H      42.80200000      50.75100000      73.46300000 
H      44.50000000      49.68300000      74.90000000 
H      45.16700000      51.67800000      74.26400000 
H      46.40300000      48.57400000      73.87400000 
H      44.95000000      47.77300000      73.31000000 
H      45.78000000      48.90900000      72.25700000 
N      51.73400000      38.80400000      73.00400000 
C      50.74400000      38.85600000      74.06400000 
C      50.89200000      37.61200000      74.89300000 
O      50.71900000      36.49300000      74.34600000 
C      49.33200000      39.01600000      73.47600000 
C      49.24600000      40.40300000      72.87500000 
C      48.29000000      38.75300000      74.55000000 
C      47.99900000      40.64400000      72.04500000 
H      51.62100000      38.04100000      72.35100000 
H      50.96100000      39.70800000      74.67800000 
H      49.23400000      38.27300000      72.68900000 
H      49.30500000      41.12600000      73.67300000 
H      50.11200000      40.56300000      72.24800000 
H      47.30800000      38.95300000      74.17700000 
H      48.32000000      37.72800000      74.86900000 
H      48.46500000      39.38300000      75.40300000 
H      48.01400000      41.63600000      71.62800000 
H      47.94000000      39.94400000      71.24300000 
H      47.10100000      40.55400000      72.64600000 
N      41.46500000      43.40300000      64.59400000 
C      40.94300000      43.41000000      65.93500000 
C      41.30600000      42.09300000      66.55600000 
O      40.80800000      41.07700000      66.13600000 
C      39.43600000      43.54200000      65.90300000 
O      39.16000000      44.73800000      65.14200000 
C      38.85100000      43.63200000      67.29400000 
H      41.21500000      42.66200000      63.98400000 
H      41.38500000      44.23300000      66.47200000 
H      39.03800000      42.70400000      65.39200000 
H      38.26100000      44.97300000      65.17400000 
H      37.77500000      43.79200000      67.21400000 
H      39.01100000      42.73700000      67.83800000 
H      39.27100000      44.45500000      67.82800000 
N      42.19400000      42.13300000      67.56300000 
C      42.55300000      40.94600000      68.28100000 
C      41.84000000      41.02000000      69.61400000 
O      42.02200000      41.99500000      70.36400000 
C      44.07300000      40.80100000      68.37200000 
C      44.61100000      40.46700000      66.99500000 
C      44.44800000      39.73400000      69.40500000 
C      46.12600000      40.50900000      66.89100000 
H      42.50800000      43.01200000      67.90400000 
H      42.15900000      40.09100000      67.73800000 
H      44.47200000      41.74200000      68.68400000 
H      44.26600000      39.46700000      66.72900000 
H      44.18200000      41.14700000      66.27000000 
H      45.52200000      39.61500000      69.42300000 
H      44.12700000      39.99500000      70.37200000 
H      44.01500000      38.78600000      69.12700000 
H      46.44200000      40.30900000      65.89400000 
H      46.49000000      41.48300000      67.17500000 
H      46.58000000      39.78800000      67.54000000 
N      41.00100000      40.04200000      69.85800000 
C      40.13100000      40.07800000      70.99800000 
C      40.25900000      38.77600000      71.74600000 
O      40.37200000      37.70700000      71.12000000 
C      38.68700000      40.26700000      70.56300000 
O      38.58200000      41.30100000      69.60000000 
H      40.89800000      39.30300000      69.20300000 
H      40.43300000      40.88300000      71.62800000 
H      38.30600000      39.37200000      70.11100000 
H      38.08400000      40.48800000      71.43000000 
H      38.49600000      42.19900000      69.98000000 
N      40.24100000      38.87100000      73.05200000 
C      40.46000000      37.67000000      73.85700000 
C      39.34800000      37.54300000      74.85300000 
O      38.97600000      38.49500000      75.57700000 
C      41.83400000      37.74700000      74.53600000 
C      42.01600000      39.02300000      75.35900000 
C      42.88400000      37.65300000      73.43600000 
C      43.41500000      39.25100000      75.90200000 
H      40.21900000      39.76000000      73.48500000 
H      40.43900000      36.86700000      73.23300000 
H      41.91600000      36.88500000      75.18400000 
H      41.75900000      39.86000000      74.73600000 
H      41.31000000      38.99200000      76.17300000 
H      43.86900000      37.51500000      73.84800000 
H      42.66200000      36.80800000      72.80000000 
H      42.87800000      38.53400000      72.83700000 
H      43.40200000      40.17000000      76.48900000 
H      43.73300000      38.46000000      76.53500000 
H      44.13300000      39.38400000      75.10900000 
N      38.79500000      36.35400000      74.90600000 
C      37.80600000      36.02100000      75.89300000 
C      38.25400000      34.80900000      76.65700000 
O      39.11100000      34.04700000      76.22100000 
C      36.38300000      35.82900000      75.32800000 
C      36.01900000      34.46500000      74.82300000 
C      35.67000000      33.38800000      75.59300000 
C      35.89400000      34.03000000      73.44300000 
N      35.33800000      32.32500000      74.78900000 
C      35.46800000      32.68100000      73.48300000 
C      36.17400000      34.63200000      72.20600000 
C      35.32400000      31.93000000      72.30200000 
C      36.03800000      33.85700000      71.06100000 
C      35.63000000      32.54700000      71.11700000 
H      39.11700000      35.62100000      74.29600000 
H      37.76300000      36.84300000      76.58300000 
H      35.68800000      36.11200000      76.10500000 
H      36.27500000      36.54900000      74.52500000 
H      35.63800000      33.30500000      76.64000000 
H      35.19800000      31.39900000      75.08700000 
H      36.50300000      35.63600000      72.15200000 
H      35.03900000      30.89900000      72.37000000 
H      36.27000000      34.31200000      70.10700000 
H      35.54800000      31.97000000      70.21100000 
N      37.61600000      34.60300000      77.79700000 
C      37.75500000      33.37200000      78.51700000 
C      38.34800000      33.52400000      79.88800000 
O      38.48800000      34.62300000      80.44600000 
H      37.02400000      35.31400000      78.17700000 
H      36.80900000      32.88300000      78.62700000 
H      38.40300000      32.72000000      77.93800000 
N      40.62100000      32.33500000      74.51700000 
C      39.92600000      32.28400000      73.27200000 
C      40.26700000      33.54000000      72.54500000 
O      39.85100000      34.64900000      72.95500000 
C      38.43900000      32.16300000      73.51500000 
C      38.08700000      30.93900000      74.35700000 
C      37.31400000      29.89300000      73.64500000 
O      36.26700000      29.40000000      74.13500000 
N      37.77500000      29.47300000      72.46500000 
H      40.30800000      33.01700000      75.18200000 
H      40.30600000      31.42400000      72.72300000 
H      38.12900000      33.03600000      74.03000000 
H      37.92200000      32.14300000      72.56500000 
H      38.99400000      30.46900000      74.73800000 
H      37.51800000      31.22700000      75.20500000 
H      38.59600000      29.87000000      72.06100000 
H      37.30300000      28.78300000      71.95600000 
N      41.09800000      33.46200000      71.51200000 
C      41.66300000      34.58100000      70.84500000 
C      41.11600000      34.65200000      69.44900000 
O      41.20000000      33.65200000      68.71100000 
C      43.19000000      34.44600000      70.75900000 
C      43.78800000      35.71800000      70.14100000 
C      43.81000000      34.15000000      72.11100000 
H      41.37900000      32.53800000      71.20000000 
H      41.39600000      35.46900000      71.39800000 
H      43.39600000      33.62100000      70.10400000 
H      44.85100000      35.60700000      70.05900000 
H      43.38100000      35.91100000      69.17100000 
H      43.58000000      36.57000000      70.78100000 
H      44.87800000      34.11000000      72.01200000 
H      43.56600000      34.92300000      72.83300000 
H      43.45300000      33.20300000      72.50700000 
N      40.61100000      35.80200000      69.04900000 
C      40.15600000      35.99200000      67.69300000 
C      40.88800000      37.16100000      67.11400000 
O      41.08200000      38.21500000      67.77100000 
C      38.64700000      36.18300000      67.61500000 
C      38.10400000      37.21400000      68.56100000 
C      36.61400000      37.40500000      68.45900000 
O      36.03600000      37.01900000      67.40000000 
O      36.04000000      37.98000000      69.41700000 
H      40.54200000      36.56800000      69.69900000 
H      40.43100000      35.11700000      67.15300000 
H      38.39100000      36.46200000      66.59400000 
H      38.19500000      35.22400000      67.79900000 
H      38.31700000      36.92300000      69.58900000 
H      38.57700000      38.15600000      68.41300000 
H      43.25016918      46.06327641      69.66116419 
H      50.47204269      40.79829637      79.78544749 
H      50.68927597      42.43867531      77.26725138 
H      53.23048018      43.48921282      74.44757597 
H      53.45071717      52.04254294      76.67128298 
H      54.39985734      48.79058779      76.57283198 
H      53.61999007      46.14623159      79.83687841 
H      43.81283171      50.41312508      71.18128367 
H      51.69795961      39.56304376      72.52176183 
H      51.12445475      37.68231523      75.86306214 
H      41.19914474      44.14773117      64.16423674 
H      38.65123239      32.71649412      80.39394899 
H      40.55103850      31.53993768      74.93291020 
H      41.23904702      37.11771246      66.17864329 
