287
Properties=species:S:1:pos:R:3 pbc="F F F"
N      21.86600000      21.04200000      53.72300000 
C      21.38800000      20.03800000      52.76500000 
C      22.16500000      20.25900000      51.44700000 
O      22.22400000      21.37800000      50.93600000 
C      19.84800000      20.16300000      52.52100000 
C      19.34500000      18.99800000      51.67800000 
C      19.11200000      20.23200000      53.86200000 
H      21.73300000      22.00000000      53.47300000 
H      21.60800000      19.08100000      53.16100000 
H      19.67700000      21.08800000      51.98100000 
H      18.28500000      19.05400000      51.56400000 
H      19.79400000      18.96700000      50.68800000 
H      19.57700000      18.03100000      52.17700000 
H      18.03700000      20.22000000      53.67700000 
H      19.34700000      19.38000000      54.48800000 
H      19.33900000      21.13200000      54.40700000 
N      21.66300000      22.00800000      44.27900000 
C      20.66200000      22.42300000      45.23500000 
C      21.34300000      22.58800000      46.57700000 
O      21.86100000      21.60700000      47.14000000 
C      19.55900000      21.33700000      45.28700000 
C      18.55500000      21.56900000      46.42700000 
C      18.81300000      21.20600000      43.95100000 
H      22.03200000      21.06800000      44.43200000 
H      20.24800000      23.37000000      44.89900000 
H      20.07600000      20.41700000      45.48600000 
H      17.79700000      20.80000000      46.41000000 
H      19.03700000      21.52500000      47.41200000 
H      18.06400000      22.52700000      46.34200000 
H      18.27900000      20.25500000      43.94200000 
H      18.10800000      21.98900000      43.81500000 
H      19.50000000      21.19000000      43.11900000 
N      20.71200000      24.35300000      50.57600000 
C      19.85400000      25.04700000      51.52500000 
C      20.59000000      24.99300000      52.87300000 
O      21.05200000      23.92200000      53.28600000 
C      18.47400000      24.33800000      51.64100000 
C      17.50900000      24.89700000      52.70000000 
C      17.05100000      26.33800000      52.35500000 
C      16.28200000      23.98300000      52.79300000 
H      21.25600000      23.58900000      50.89400000 
H      19.73500000      26.05100000      51.20500000 
H      18.02400000      24.39000000      50.65900000 
H      18.67100000      23.28500000      51.86800000 
H      17.98800000      24.92400000      53.65500000 
H      16.33300000      26.68500000      53.09100000 
H      17.86500000      27.03000000      52.33000000 
H      16.55700000      26.35800000      51.37200000 
H      15.61400000      24.30400000      53.56800000 
H      15.73600000      23.96900000      51.85500000 
H      16.58400000      22.95800000      53.01500000 
N       9.61700000      26.28800000      46.04900000 
C       9.56200000      25.58400000      47.29600000 
C      10.95400000      25.41400000      47.89200000 
O      11.12500000      25.32700000      49.11900000 
C       8.82600000      24.23900000      47.14400000 
C       7.30000000      24.36200000      47.26000000 
C       6.65800000      25.38800000      46.34400000 
N       5.21200000      25.39600000      46.44900000 
C       4.32300000      25.36500000      45.49900000 
N       3.00900000      25.52100000      45.76500000 
N       4.64200000      25.12300000      44.19400000 
H       9.51700000      25.73900000      45.18300000 
H       9.05100000      26.20000000      48.02400000 
H       9.09900000      23.79300000      46.18500000 
H       9.16500000      23.55400000      47.90900000 
H       6.86500000      23.39200000      47.03600000 
H       7.03300000      24.58900000      48.28800000 
H       7.01200000      26.39300000      46.58100000 
H       6.95400000      25.21000000      45.30800000 
H       4.84900000      25.54700000      47.39100000 
H       2.71900000      25.73900000      46.67600000 
H       2.32500000      25.45500000      45.05800000 
H       5.57800000      24.94200000      43.92600000 
H       3.96800000      25.12200000      43.50500000 
N      11.98100000      25.34700000      47.01700000 
C      13.38600000      25.23300000      47.39500000 
C      13.95000000      26.54100000      47.89600000 
O      14.71100000      26.58400000      48.88300000 
C      14.20000000      24.68400000      46.20700000 
C      15.70700000      24.68400000      46.50000000 
C      13.71400000      23.25800000      45.84600000 
H      11.79600000      25.42700000      46.04500000 
H      13.46700000      24.55600000      48.23600000 
H      14.02100000      25.32900000      45.36600000 
H      16.22900000      24.17500000      45.69700000 
H      16.11600000      25.69500000      46.55400000 
H      15.94200000      24.17700000      47.41900000 
H      14.32600000      22.88600000      45.04900000 
H      13.83500000      22.58800000      46.70900000 
H      12.68900000      23.26800000      45.52800000 
N      12.42800000      28.91100000      49.37000000 
C      11.90800000      29.14200000      50.71000000 
C      12.48800000      28.09500000      51.70600000 
O      13.13500000      28.48000000      52.65200000 
C      10.36700000      29.15200000      50.71400000 
O       9.98800000      30.26400000      49.86400000 
C       9.81500000      29.39900000      52.10400000 
H      11.83900000      28.45600000      48.69100000 
H      12.26800000      30.07800000      51.06200000 
H       9.98000000      28.23000000      50.28800000 
H       9.37600000      30.01200000      49.18200000 
H       8.72800000      29.42800000      52.05400000 
H      10.08700000      28.60800000      52.78800000 
H      10.16000000      30.33800000      52.49400000 
N      12.22500000      26.79400000      51.44300000 
C      12.80300000      25.71700000      52.22400000 
C      11.88600000      25.29600000      53.37900000 
O      11.73600000      26.04300000      54.35300000 
H      11.73800000      26.50800000      50.59900000 
H      12.99500000      24.87500000      51.55900000 
H      13.73500000      26.03200000      52.66400000 
N      11.24000000      24.13300000      53.25800000 
C      10.25500000      23.69600000      54.23500000 
C      10.55800000      22.23500000      54.62000000 
O      11.51400000      21.99500000      55.34700000 
C       8.78000000      24.04000000      53.85700000 
C       8.65700000      25.11900000      52.79100000 
C       7.19100000      25.53900000      52.59500000 
C       7.03000000      26.39200000      51.33000000 
N       5.86400000      27.33500000      51.44600000 
H      11.33900000      23.58600000      52.41200000 
H      10.49400000      24.26200000      55.14500000 
H       8.25500000      23.16000000      53.48100000 
H       8.27200000      24.33300000      54.76300000 
H       9.22800000      26.01100000      53.06900000 
H       9.05600000      24.75800000      51.85000000 
H       6.55200000      24.66400000      52.51000000 
H       6.85700000      26.09500000      53.45800000 
H       7.90500000      27.02300000      51.16600000 
H       6.87300000      25.78800000      50.46200000 
H       5.70000000      27.82000000      50.59600000 
H       5.00900000      26.82700000      51.67900000 
H       6.02000000      28.01500000      52.17800000 
N       9.75900000      21.31000000      54.12200000 
C       9.92200000      19.86900000      54.34900000 
C       9.90000000      19.11500000      53.03700000 
O      10.75100000      18.22000000      52.81400000 
C       8.89700000      19.25000000      55.37100000 
C       9.37300000      19.54900000      56.80900000 
C       7.46600000      19.75300000      55.15800000 
H       9.00400000      21.56600000      53.54400000 
H      10.90900000      19.70600000      54.73500000 
H       8.92600000      18.18300000      55.22400000 
H       8.68800000      19.07900000      57.51700000 
H      10.36100000      19.13300000      56.98500000 
H       9.39700000      20.60400000      57.01200000 
H       6.81100000      19.26300000      55.88500000 
H       7.39100000      20.81500000      55.32300000 
H       7.08800000      19.52500000      54.18600000 
N       8.97500000      19.42300000      52.11400000 
C       8.90600000      18.86100000      50.77500000 
C       9.84300000      19.68300000      49.84900000 
O       9.41600000      20.34800000      48.92600000 
C       7.47900000      18.82900000      50.26200000 
C       6.70200000      20.13900000      50.32100000 
O       6.91700000      20.91600000      51.31000000 
O       5.85000000      20.35600000      49.42600000 
H       8.29000000      20.13100000      52.26100000 
H       9.29600000      17.84900000      50.81100000 
H       7.46800000      18.47700000      49.25200000 
H       6.93000000      18.10500000      50.86000000 
N      11.15100000      19.59100000      50.16700000 
C      12.19300000      20.29500000      49.47900000 
C      12.88400000      19.29200000      48.55900000 
O      12.70200000      19.34600000      47.30400000 
C      13.12000000      21.03200000      50.44800000 
C      14.02900000      22.04900000      49.79200000 
S      15.42300000      21.34100000      48.73600000 
C      16.81400000      21.19300000      49.97500000 
H      11.41100000      18.99100000      50.94600000 
H      11.71600000      21.02700000      48.82200000 
H      12.47800000      21.56500000      51.14500000 
H      13.69700000      20.32500000      51.05000000 
H      13.45900000      22.68700000      49.12800000 
H      14.50400000      22.68300000      50.53700000 
H      17.56500000      20.58700000      49.52000000 
H      17.19700000      22.17500000      50.19100000 
H      16.45000000      20.72700000      50.87600000 
N      13.60600000      18.33600000      49.14700000 
C      14.31200000      17.35400000      48.30200000 
C      13.35000000      16.49400000      47.53400000 
O      13.64700000      16.16200000      46.35100000 
C      15.33100000      16.52000000      49.11900000 
C      16.61300000      17.32200000      49.33800000 
C      14.79000000      15.96900000      50.45900000 
H      13.76300000      18.34200000      50.09900000 
H      14.86800000      17.89700000      47.54600000 
H      15.57900000      15.66600000      48.48800000 
H      17.34200000      16.74300000      49.90400000 
H      17.07600000      17.60000000      48.39100000 
H      16.41800000      18.23100000      49.89100000 
H      15.53300000      15.28700000      50.87400000 
H      14.67100000      16.77200000      51.18800000 
H      13.88200000      15.45100000      50.35700000 
N      12.21700000      16.07300000      48.11000000 
C      11.33600000      15.09500000      47.47200000 
C      10.59700000      15.67900000      46.26700000 
O      10.32300000      14.97500000      45.33400000 
C      10.43900000      14.45700000      48.52300000 
C       9.63100000      13.26700000      47.99400000 
C       8.33800000      13.59700000      47.24800000 
O       7.78500000      14.66900000      47.49000000 
O       7.91100000      12.68300000      46.46000000 
H      12.00100000      16.38300000      49.03600000 
H      11.96900000      14.32400000      47.04100000 
H      11.06800000      14.14500000      49.32700000 
H       9.73200000      15.21300000      48.91800000 
H      10.25200000      12.64700000      47.36900000 
H       9.35800000      12.64300000      48.83400000 
N      10.29100000      17.00400000      46.30700000 
C       9.59300000      17.62500000      45.16700000 
C      10.47200000      17.55800000      43.93400000 
O      10.02300000      17.19400000      42.82300000 
C       9.25200000      19.07600000      45.52700000 
C       8.18700000      19.72600000      44.63400000 
O       7.37200000      18.95100000      44.04100000 
O       8.18700000      20.96700000      44.60700000 
H      10.55300000      17.56400000      47.08100000 
H       8.71200000      17.08000000      44.94800000 
H       8.86800000      19.09400000      46.53000000 
H      10.12400000      19.69000000      45.52600000 
N      11.76100000      17.93200000      44.06700000 
C      12.61600000      18.00700000      42.89700000 
C      13.00200000      16.63500000      42.38500000 
O      13.07000000      16.44400000      41.15400000 
C      13.87300000      18.90500000      43.14300000 
C      14.02900000      20.02600000      42.06700000 
C      13.67400000      21.39600000      42.64700000 
C      15.46400000      20.06300000      41.50100000 
H      12.12200000      18.18800000      44.96600000 
H      12.04100000      18.43100000      42.09800000 
H      13.80800000      19.34500000      44.11500000 
H      14.76800000      18.27700000      43.14600000 
H      13.37600000      19.81400000      41.24500000 
H      13.67700000      22.15300000      41.87500000 
H      12.69600000      21.39600000      43.11700000 
H      14.41500000      21.68000000      43.39000000 
H      15.57900000      20.86800000      40.80100000 
H      16.18800000      20.18400000      42.30800000 
H      15.67400000      19.11700000      41.01700000 
N      13.25400000      15.64000000      43.25800000 
C      13.67200000      14.32000000      42.80100000 
C      12.48000000      13.39500000      42.63200000 
O      12.36900000      12.25600000      43.12400000 
C      14.84100000      13.73900000      43.63500000 
C      15.54700000      12.58800000      42.90300000 
C      14.48600000      13.30800000      45.06600000 
C      15.92400000      12.90100000      41.45100000 
H      13.18700000      15.81300000      44.24700000 
H      14.05600000      14.46800000      41.81100000 
H      15.54700000      14.56900000      43.70000000 
H      16.47500000      12.37700000      43.47100000 
H      14.94500000      11.68600000      42.95100000 
H      15.40400000      13.09600000      45.61200000 
H      13.97500000      14.10500000      45.60800000 
H      13.86700000      12.43100000      45.07800000 
H      16.69200000      12.20900000      41.09400000 
H      15.07300000      12.78500000      40.78000000 
H      16.30200000      13.89300000      41.34800000 
N      11.50800000      13.86800000      41.78900000 
C      10.36700000      13.09400000      41.38800000 
C       9.74600000      13.75900000      40.17100000 
O       9.46500000      13.07600000      39.16900000 
C       9.32900000      12.92000000      42.54500000 
C       8.33500000      11.78800000      42.30400000 
C       8.88400000      10.39100000      42.25100000 
O       8.16100000       9.44900000      41.81800000 
N      10.14100000      10.14500000      42.70700000 
H      11.71900000      14.74900000      41.34600000 
H      10.71000000      12.12000000      41.04600000 
H       9.88500000      12.75900000      43.46000000 
H       8.79200000      13.85800000      42.66700000 
H       7.61800000      11.80300000      43.08600000 
H       7.78900000      11.93500000      41.36900000 
H      10.75300000      10.84800000      43.00500000 
H      10.47100000       9.20900000      42.67800000 
H      21.44098408      20.93365621      54.50889000 
H      22.62469712      19.49009379      51.00263326 
H      21.31028681      22.01839771      43.45105961 
H      21.37725524      23.48724225      47.01310774 
H      20.21048887      24.01280007      49.91060494 
H      20.69632652      25.82448319      53.41828008 
H       8.95569415      26.89772354      46.01880431 
H      13.71500908      27.39635879      47.43432847 
H      12.64308121      29.69860854      48.99130110 
H       9.56431052      14.74233919      40.17674152 
