405
Properties=species:S:1:pos:R:3 pbc="F F F"
N      16.50200000      12.25800000      22.09000000 
C      17.63800000      13.03400000      21.67100000 
C      18.79300000      12.12300000      21.38600000 
O      19.56700000      12.35300000      20.44100000 
C      18.06900000      14.08800000      22.69600000 
C      16.88900000      14.78700000      23.35500000 
C      18.98800000      15.08400000      22.00200000 
C      15.97700000      15.51900000      22.39000000 
H      16.14900000      12.35000000      23.01100000 
H      17.40200000      13.51500000      20.73800000 
H      18.61400000      13.58200000      23.47700000 
H      16.30900000      14.07300000      23.91400000 
H      17.29400000      15.48500000      24.07600000 
H      19.27100000      15.87000000      22.68800000 
H      19.88200000      14.60400000      21.63700000 
H      18.48400000      15.53500000      21.15800000 
H      15.11500000      15.91600000      22.91200000 
H      16.48600000      16.34000000      21.90800000 
H      15.61900000      14.84900000      21.62600000 
N      18.99600000      11.13500000      17.93200000 
C      19.34300000      12.16300000      16.98900000 
C      20.79000000      12.11100000      16.59800000 
O      21.16500000      12.70400000      15.57600000 
C      19.04700000      13.51500000      17.60700000 
H      18.77500000      11.41200000      18.86100000 
H      18.77800000      12.02500000      16.08500000 
H      19.24100000      14.30500000      16.90000000 
H      18.01200000      13.54200000      17.89700000 
H      19.65000000      13.65900000      18.48500000 
N      29.61300000      18.66900000      14.27000000 
C      28.64400000      19.13100000      15.22800000 
C      29.33600000      19.75700000      16.40700000 
O      28.90900000      20.79700000      16.93700000 
C      27.77300000      17.95100000      15.65200000 
C      26.56600000      18.39700000      16.41600000 
C      25.48000000      18.92100000      15.73100000 
C      26.51700000      18.31700000      17.79700000 
C      24.36300000      19.36300000      16.41400000 
C      25.40100000      18.76400000      18.48600000 
C      24.32200000      19.28800000      17.79600000 
H      29.62300000      17.70700000      14.00400000 
H      28.03200000      19.90200000      14.79100000 
H      27.46200000      17.44500000      14.75000000 
H      28.37100000      17.26500000      16.22700000 
H      25.51300000      18.97500000      14.66200000 
H      27.34900000      17.90600000      18.33300000 
H      23.53600000      19.77100000      15.87500000 
H      25.37300000      18.70300000      19.55400000 
H      23.46000000      19.63700000      18.32600000 
N      30.44600000      23.32400000      15.76700000 
C      29.45900000      24.34300000      15.56300000 
C      28.76200000      24.70000000      16.83700000 
O      28.27900000      25.85000000      16.97500000 
C      28.46900000      23.92100000      14.48600000 
C      27.68500000      25.09100000      13.91500000 
C      28.59600000      26.08500000      13.21500000 
C      27.86100000      27.33900000      12.79400000 
N      28.82800000      28.47600000      12.81700000 
H      30.32300000      22.41300000      15.38100000 
H      29.96900000      25.23900000      15.26900000 
H      29.03700000      23.45500000      13.69800000 
H      27.80000000      23.17200000      14.88600000 
H      26.95500000      24.71100000      13.21400000 
H      27.14600000      25.59700000      14.70300000 
H      29.38400000      26.38400000      13.88500000 
H      29.06700000      25.62000000      12.36000000 
H      27.44100000      27.26800000      11.80700000 
H      27.09300000      27.59400000      13.49800000 
H      28.42400000      29.32300000      12.45700000 
H      29.07400000      28.61300000      13.79300000 
H      29.65200000      28.27100000      12.28100000 
N      28.66900000      23.78900000      17.78500000 
C      27.92900000      24.00400000      19.01500000 
C      28.30100000      25.32500000      19.63300000 
O      27.43500000      26.12700000      20.01900000 
C      28.24700000      22.82400000      19.93200000 
C      27.45100000      22.71500000      21.22800000 
C      27.86400000      23.72100000      22.29400000 
C      25.95300000      22.77200000      20.97800000 
H      29.04400000      22.87900000      17.61500000 
H      26.87600000      24.05600000      18.80300000 
H      28.05800000      21.93400000      19.34700000 
H      29.30500000      22.84000000      20.15100000 
H      27.68200000      21.73000000      21.61600000 
H      27.37100000      23.48600000      23.22900000 
H      28.93400000      23.69400000      22.45800000 
H      27.58300000      24.72600000      22.01700000 
H      25.41300000      22.51700000      21.88100000 
H      25.65000000      23.76700000      20.67800000 
H      25.66400000      22.07700000      20.19900000 
N      26.64400000      28.64600000      18.33800000 
C      25.23400000      28.92900000      18.27000000 
C      24.87100000      30.00700000      19.25800000 
O      25.38600000      30.03300000      20.38900000 
C      24.41300000      27.65700000      18.51100000 
C      24.37200000      27.23500000      19.97000000 
C      22.99800000      27.83100000      17.98500000 
H      26.96600000      27.81200000      18.78000000 
H      25.02400000      29.27500000      17.27700000 
H      24.91000000      26.88900000      17.93400000 
H      23.92700000      26.25200000      20.04500000 
H      25.35800000      27.19700000      20.40200000 
H      23.77200000      27.92500000      20.53700000 
H      22.45300000      26.90200000      18.09000000 
H      22.48100000      28.59100000      18.55100000 
H      22.99800000      28.11200000      16.94100000 
N      16.34100000      22.43700000      25.78100000 
C      17.29100000      21.63000000      25.07100000 
C      16.69700000      21.03200000      23.83300000 
O      17.39500000      20.91000000      22.80300000 
H      16.21600000      22.22800000      26.74600000 
H      18.14800000      22.20300000      24.76600000 
H      17.60800000      20.84000000      25.72900000 
N      15.43900000      20.64000000      23.85400000 
C      14.83100000      20.10400000      22.65500000 
C      14.84000000      21.14200000      21.56400000 
O      15.09100000      20.84400000      20.38300000 
C      13.40600000      19.68000000      22.95700000 
H      14.92300000      20.65100000      24.71000000 
H      15.40900000      19.27400000      22.29000000 
H      12.92700000      19.34400000      22.05200000 
H      13.40800000      18.87100000      23.67200000 
H      12.85400000      20.51000000      23.36900000 
N      14.53500000      22.38100000      21.92700000 
C      14.53800000      23.46800000      20.98000000 
C      15.93600000      23.69900000      20.46500000 
O      16.18000000      23.84000000      19.25400000 
C      14.03600000      24.73200000      21.66000000 
C      12.58800000      24.61100000      22.11000000 
C      12.17600000      25.86000000      22.83800000 
O      12.76700000      26.10100000      23.94700000 
O      11.31900000      26.61800000      22.32200000 
H      14.41700000      22.59300000      22.89000000 
H      13.92500000      23.21600000      20.13300000 
H      14.65800000      24.93500000      22.51300000 
H      14.13400000      25.55500000      20.96500000 
H      11.94300000      24.46300000      21.25800000 
H      12.48500000      23.77400000      22.78200000 
N      16.88100000      23.77000000      21.38900000 
C      18.24900000      24.07300000      21.05900000 
C      18.77300000      23.06600000      20.07400000 
O      19.50100000      23.39900000      19.12100000 
C      19.05800000      24.03600000      22.35000000 
C      20.47800000      24.56300000      22.23100000 
C      20.48600000      26.06000000      21.96300000 
C      21.22200000      24.26500000      23.52300000 
H      16.63800000      23.65700000      22.35300000 
H      18.31400000      25.03500000      20.58400000 
H      18.53200000      24.62900000      23.08500000 
H      19.06800000      23.01800000      22.70900000 
H      20.97800000      24.05700000      21.41500000 
H      21.50100000      26.43100000      21.91600000 
H      19.99400000      26.30700000      21.03200000 
H      19.97600000      26.57600000      22.76700000 
H      22.23100000      24.65200000      23.48600000 
H      20.71500000      24.73400000      24.35700000 
H      21.26800000      23.20100000      23.71200000 
N      18.42800000      21.80500000      20.29800000 
C      18.88200000      20.73400000      19.45100000 
C      18.50600000      21.02200000      18.02600000 
O      19.31100000      20.90400000      17.08800000 
C      18.22300000      19.43000000      19.89100000 
O      18.65600000      19.10500000      21.21100000 
C      18.60500000      18.29200000      18.98500000 
H      17.90000000      21.58500000      21.11600000 
H      19.95100000      20.62800000      19.49100000 
H      17.15400000      19.57500000      19.89100000 
H      18.18700000      19.60300000      21.88200000 
H      18.20700000      17.37200000      19.37900000 
H      18.20800000      18.43800000      17.99400000 
H      19.68000000      18.21200000      18.91900000 
N      17.23800000      21.35200000      17.81600000 
C      16.74500000      21.50200000      16.47300000 
C      17.52900000      22.55600000      15.75000000 
O      17.82500000      22.41800000      14.55000000 
C      15.27600000      21.87400000      16.50100000 
H      16.62400000      21.51800000      18.58200000 
H      16.89500000      20.58700000      15.92600000 
H      14.89000000      21.93200000      15.49600000 
H      14.72000000      21.11800000      17.03600000 
H      15.14100000      22.82200000      16.99900000 
N      17.84700000      23.65000000      16.42500000 
C      18.52500000      24.73500000      15.76800000 
C      19.82300000      24.26300000      15.17300000 
O      20.15400000      24.56800000      14.01800000 
C      18.84600000      25.84100000      16.75400000 
C      17.65800000      26.67800000      17.09500000 
O      16.49500000      26.26700000      16.93500000 
N      17.92200000      27.88300000      17.58100000 
H      17.56000000      23.74800000      17.37400000 
H      17.93100000      25.10900000      14.95400000 
H      19.23900000      25.40700000      17.66200000 
H      19.61200000      26.47900000      16.34000000 
H      17.17700000      28.48200000      17.85000000 
H      18.85200000      28.21500000      17.67700000 
N      20.63700000      23.57300000      15.96800000 
C      21.94900000      23.23100000      15.47400000 
C      21.79300000      22.25600000      14.33800000 
O      22.47900000      22.32300000      13.29700000 
C      22.85900000      22.67000000      16.56700000 
C      24.29100000      22.64400000      16.05300000 
C      22.79300000      23.51300000      17.83000000 
H      20.33000000      23.28000000      16.87000000 
H      22.40200000      24.11800000      15.06300000 
H      22.53400000      21.66600000      16.79800000 
H      24.93900000      22.20300000      16.79300000 
H      24.38700000      22.07900000      15.13900000 
H      24.62200000      23.65900000      15.86700000 
H      23.53300000      23.15200000      18.53300000 
H      23.02100000      24.54700000      17.60200000 
H      21.82800000      23.46900000      18.30800000 
N      20.88500000      21.30300000      14.50100000 
C      20.71900000      20.29100000      13.49500000 
C      20.27900000      20.88000000      12.19000000 
O      20.79600000      20.47300000      11.13300000 
C      19.69700000      19.26300000      13.93600000 
C      20.11800000      18.44900000      15.14800000 
C      18.97600000      17.51400000      15.50600000 
C      21.38700000      17.65800000      14.88300000 
H      20.31400000      21.27900000      15.32100000 
H      21.66700000      19.82600000      13.29600000 
H      18.76900000      19.77400000      14.14600000 
H      19.52300000      18.58900000      13.10800000 
H      20.28500000      19.12100000      15.97300000 
H      19.21800000      16.92100000      16.37700000 
H      18.07400000      18.07600000      15.71500000 
H      18.77500000      16.84400000      14.68100000 
H      21.66100000      17.08800000      15.76000000 
H      21.23500000      16.97000000      14.06000000 
H      22.21900000      18.30300000      14.63900000 
N      19.30500000      21.78000000      12.18500000 
C      18.80700000      22.24800000      10.91800000 
C      19.70700000      23.28200000      10.30400000 
O      19.50900000      23.62400000       9.12800000 
C      17.39100000      22.78300000      10.99700000 
C      17.26800000      24.05200000      11.81500000 
C      15.93100000      24.71600000      11.55500000 
N      15.71100000      25.83600000      12.45500000 
C      15.37200000      25.70400000      13.72400000 
N      15.13200000      24.50800000      14.23600000 
N      15.27300000      26.77100000      14.50300000 
H      18.87200000      22.06400000      13.04100000 
H      18.82200000      21.41900000      10.23000000 
H      17.07200000      22.97200000       9.98300000 
H      16.75400000      22.01200000      11.40500000 
H      17.37800000      23.82400000      12.86100000 
H      18.05100000      24.75000000      11.55600000 
H      15.90000000      25.10700000      10.55200000 
H      15.12000000      24.01100000      11.65000000 
H      15.95600000      26.74100000      12.13000000 
H      15.24000000      23.67800000      13.70700000 
H      14.80200000      24.42100000      15.16600000 
H      15.42200000      27.67600000      14.12800000 
H      15.34500000      26.66000000      15.49400000 
N      20.67600000      23.80500000      11.04800000 
C      21.59100000      24.76300000      10.48800000 
C      22.78500000      24.09300000       9.86000000 
O      23.35800000      24.61800000       8.89300000 
C      22.06000000      25.74200000      11.54800000 
C      22.61300000      27.01100000      10.94300000 
O      21.96000000      27.52700000       9.99200000 
O      23.66400000      27.48800000      11.45600000 
H      20.70300000      23.62300000      12.02600000 
H      21.09600000      25.30800000       9.71100000 
H      21.20300000      26.00400000      12.15000000 
H      22.79200000      25.29000000      12.19600000 
N      23.22400000      22.97200000      10.44000000 
C      24.43500000      22.33000000       9.99800000 
C      24.24400000      20.87000000       9.70400000 
O      24.82900000      20.33100000       8.75000000 
C      25.55700000      22.47700000      11.02100000 
C      26.88800000      22.07600000      10.42100000 
S      28.09000000      21.49500000      11.70400000 
C      27.40400000      19.78100000      11.88700000 
H      22.77800000      22.67600000      11.28100000 
H      24.72300000      22.79600000       9.07500000 
H      25.58900000      23.50800000      11.34000000 
H      25.31900000      21.87500000      11.88400000 
H      26.77900000      21.26500000       9.72600000 
H      27.34700000      22.90400000       9.91100000 
H      27.96600000      19.27000000      12.64200000 
H      26.37200000      19.84000000      12.17700000 
H      27.50200000      19.26700000      10.94800000 
N      23.48400000      20.15600000      10.52800000 
C      23.26300000      18.75900000      10.27700000 
C      22.55200000      18.53500000       8.97200000 
O      22.86600000      17.58200000       8.23800000 
H      22.95700000      20.58700000      11.24500000 
H      24.19400000      18.22200000      10.23400000 
H      22.66100000      18.36200000      11.07600000 
N      21.55800000      19.36900000       8.69200000 
C      20.87900000      19.41100000       7.41600000 
C      20.28500000      18.07200000       7.05500000 
O      20.34600000      17.62900000       5.90100000 
C      21.76000000      19.93500000       6.30200000 
C      22.34300000      21.30800000       6.58400000 
C      23.27500000      21.69800000       5.44900000 
C      21.26400000      22.35800000       6.76000000 
H      21.29500000      20.02700000       9.39400000 
H      20.04300000      20.07900000       7.55400000 
H      22.55800000      19.22900000       6.13200000 
H      21.17000000      19.98100000       5.40000000 
H      22.92100000      21.25200000       7.49100000 
H      23.74000000      22.65600000       5.64900000 
H      24.05300000      20.95800000       5.31300000 
H      22.71600000      21.78000000       4.52400000 
H      21.70900000      23.32800000       6.93300000 
H      20.65100000      22.41700000       5.86800000 
H      20.62400000      22.15100000       7.60200000 
N      19.63700000      17.42600000       8.03000000 
C      19.07300000      16.12300000       7.82600000 
C      17.60100000      16.11200000       8.09100000 
O      17.09000000      16.75000000       9.02700000 
C      19.72800000      15.11300000       8.75700000 
C      21.16700000      14.89200000       8.33400000 
C      21.93100000      14.19800000       9.41000000 
O      21.61200000      13.06400000       9.81300000 
N      22.95200000      14.88200000       9.92200000 
H      19.62400000      17.81100000       8.94400000 
H      19.25500000      15.84900000       6.80600000 
H      19.67700000      15.50100000       9.76400000 
H      19.19000000      14.18300000       8.73300000 
H      21.18600000      14.27600000       7.44600000 
H      21.62800000      15.83400000       8.11100000 
H      23.18600000      15.78100000       9.56800000 
H      23.49800000      14.49100000      10.65200000 
N      16.09400000      13.88800000       9.50900000 
C      15.90900000      13.38400000      10.84200000 
C      15.80900000      14.48900000      11.85200000 
O      15.30700000      14.23800000      12.96400000 
C      17.02800000      12.43100000      11.24100000 
C      18.39700000      13.09500000      11.22700000 
S      19.36500000      12.87700000      12.79300000 
C      18.32100000      13.86500000      13.95200000 
H      16.87600000      13.58800000       8.98000000 
H      14.97500000      12.85500000      10.89500000 
H      16.78500000      12.05600000      12.22100000 
H      17.01200000      11.59000000      10.56400000 
H      19.03200000      12.69400000      10.46100000 
H      18.31800000      14.15400000      11.06700000 
H      18.88800000      13.95600000      14.85600000 
H      18.14400000      14.83300000      13.52400000 
H      17.39100000      13.36100000      14.13300000 
N      16.24000000      15.70500000      11.56500000 
C      16.06200000      16.76000000      12.53900000 
C      14.59500000      16.89400000      12.86100000 
O      14.19600000      17.11300000      14.01700000 
C      16.62700000      18.05300000      11.98300000 
H      16.62000000      15.93700000      10.67000000 
H      16.55400000      16.49500000      13.45700000 
H      16.54600000      18.84100000      12.71700000 
H      17.66800000      17.91100000      11.74000000 
H      16.10200000      18.33900000      11.08600000 
N      13.22200000      14.04500000      14.96000000 
C      13.34900000      14.21000000      16.38400000 
C      12.23400000      15.08700000      16.87100000 
O      11.58000000      14.82100000      17.90100000 
C      14.68800000      14.82800000      16.74700000 
C      14.81300000      15.05800000      18.24500000 
C      14.67400000      13.75000000      19.00300000 
C      16.12600000      15.74700000      18.56000000 
H      13.97300000      14.28900000      14.34700000 
H      13.22500000      13.25900000      16.86500000 
H      15.47000000      14.15700000      16.41900000 
H      14.80000000      15.76000000      16.21300000 
H      14.01900000      15.71800000      18.55700000 
H      14.90400000      13.88100000      20.04800000 
H      13.66700000      13.36400000      18.93800000 
H      15.35200000      13.00700000      18.60900000 
H      16.22800000      15.90200000      19.62400000 
H      16.95900000      15.14900000      18.22900000 
H      16.18400000      16.70800000      18.06800000 
N      11.98700000      16.18200000      16.16800000 
C      10.96700000      17.10400000      16.58900000 
C       9.65100000      16.41300000      16.78500000 
O       8.89000000      16.80400000      17.69700000 
C      10.78400000      18.21600000      15.57600000 
C      11.99000000      19.13700000      15.55400000 
C      11.78700000      20.22200000      14.55200000 
O      11.44700000      19.95900000      13.38400000 
N      11.98000000      21.47300000      14.96500000 
H      12.51200000      16.36800000      15.34300000 
H      11.23200000      17.52500000      17.54200000 
H      10.61800000      17.78500000      14.60500000 
H       9.90500000      18.77900000      15.85600000 
H      12.15500000      19.55000000      16.53700000 
H      12.87100000      18.58700000      15.26100000 
H      12.23900000      21.67800000      15.89900000 
H      11.86400000      22.22900000      14.33100000 
H      15.79564509      12.45317041      21.56753349 
H      18.94857191      11.31851802      21.95924177 
H      18.26883614      10.69239059      17.63988763 
H      21.44174244      11.60148709      17.15980814 
H      29.50275704      19.11130968      13.49397897 
H      30.16120517      19.33617371      16.78375146 
H      31.23281356      23.59492267      15.42418033 
H      29.26370044      25.57335947      19.74035664 
H      26.98029694      28.59297798      17.50487754 
H      24.20856763      30.71281417      19.00698263 
H      16.59472818      23.29981644      25.74679775 
H      16.99141773      15.57827498       7.50487112 
H      15.38432736      13.66511292       9.00235802 
H      13.91357852      16.80652992      12.13435446 
H      13.06883264      13.17862723      14.77042683 
H       9.39287003      15.65122280      16.19080776 
