416
Properties=species:S:1:pos:R:3 pbc="F F F"
N      25.06500000      26.45100000      20.31200000 
C      23.98800000      25.71700000      20.99500000 
C      23.02100000      25.22100000      19.97500000 
O      22.42100000      25.99600000      19.15600000 
C      23.28600000      26.68100000      22.00400000 
C      24.17600000      27.05400000      23.13900000 
C      24.69300000      26.22400000      24.12800000 
C      24.79300000      28.34600000      23.36700000 
N      25.56500000      26.86500000      24.91700000 
C      25.68600000      28.19100000      24.45400000 
C      24.66100000      29.57400000      22.76400000 
C      26.51500000      29.21800000      24.88400000 
C      25.46500000      30.62200000      23.22700000 
C      26.38700000      30.42500000      24.23700000 
H      25.00200000      27.43700000      20.18900000 
H      24.41100000      24.93200000      21.51400000 
H      22.92800000      27.55600000      21.50000000 
H      22.40100000      26.14700000      22.36300000 
H      24.45000000      25.17800000      24.30400000 
H      26.05800000      26.49900000      25.68000000 
H      23.98600000      29.73500000      21.97300000 
H      27.21700000      29.07600000      25.68700000 
H      25.37400000      31.60100000      22.75600000 
H      27.02800000      31.25300000      24.53600000 
N      27.22400000      20.59600000      27.18500000 
C      27.05200000      21.77800000      27.98000000 
C      25.67300000      22.40400000      27.73200000 
O      25.28300000      22.59400000      26.62400000 
C      28.12500000      22.85700000      27.65200000 
C      27.91000000      24.10700000      28.50500000 
C      29.53600000      22.26400000      27.85100000 
H      27.48700000      20.73000000      26.20100000 
H      27.15400000      21.50200000      29.03200000 
H      28.00400000      23.12500000      26.60500000 
H      28.72100000      24.82100000      28.32500000 
H      26.99300000      24.59700000      28.30800000 
H      27.94800000      23.84700000      29.57200000 
H      30.28100000      23.08300000      27.63900000 
H      29.68700000      21.95300000      28.84400000 
H      29.73400000      21.49100000      27.17700000 
N      24.97300000      22.72400000      28.78500000 
C      23.60800000      23.20100000      28.83200000 
C      23.50200000      24.73000000      28.87800000 
O      24.03000000      25.34700000      29.88800000 
C      22.86800000      22.54600000      29.97200000 
C      21.38100000      22.81200000      30.10100000 
C      20.52300000      22.85400000      29.02700000 
C      20.81200000      22.95400000      31.36900000 
C      19.19600000      23.02800000      29.19600000 
C      19.49200000      23.12500000      31.53300000 
C      18.67000000      23.18100000      30.44700000 
O      17.27800000      23.38500000      30.56800000 
H      25.37400000      22.52900000      29.75800000 
H      23.16400000      22.90000000      27.84700000 
H      23.04500000      21.50200000      29.89600000 
H      23.37200000      22.89200000      30.89100000 
H      20.91200000      22.72500000      28.02300000 
H      21.48600000      22.90700000      32.25300000 
H      18.50100000      23.06400000      28.33000000 
H      19.06200000      23.24400000      32.56200000 
H      16.97800000      23.45600000      31.45800000 
N      22.81300000      25.36300000      27.96300000 
C      22.61200000      26.80300000      27.93200000 
C      21.88400000      27.35300000      29.13800000 
O      22.11600000      28.52900000      29.47300000 
C      21.80900000      27.10000000      26.62100000 
C      21.32500000      28.56400000      26.41600000 
C      22.45800000      29.57300000      26.24200000 
N      21.93600000      30.97600000      26.10000000 
C      21.58300000      31.71400000      27.12400000 
N      21.55100000      31.25400000      28.32100000 
N      21.24100000      32.97500000      26.89500000 
H      22.48000000      24.83000000      27.18300000 
H      23.58000000      27.30000000      27.90200000 
H      22.42900000      26.81500000      25.78900000 
H      20.95000000      26.48500000      26.63000000 
H      20.71200000      28.55800000      25.53300000 
H      20.68500000      28.85300000      27.23500000 
H      23.16500000      29.53300000      27.02600000 
H      22.99000000      29.36200000      25.30200000 
H      21.99200000      31.36000000      25.19100000 
H      21.82600000      30.28400000      28.57000000 
H      21.14800000      31.77000000      29.13200000 
H      21.23900000      33.37300000      25.98200000 
H      21.10600000      33.62900000      27.66200000 
N      20.98900000      26.61000000      29.72500000 
C      20.09300000      27.09900000      30.78300000 
C      20.39300000      26.51300000      32.14600000 
O      19.56800000      26.56200000      33.05000000 
C      18.59900000      26.92000000      30.40700000 
C      18.24100000      27.72900000      29.17400000 
C      18.15600000      29.16900000      29.26500000 
C      17.98900000      27.19000000      27.96200000 
C      17.84500000      29.92200000      28.13700000 
C      17.67000000      27.89200000      26.83500000 
C      17.62500000      29.29700000      26.97800000 
O      17.32800000      30.09200000      25.83300000 
H      20.80800000      25.65400000      29.37700000 
H      20.30100000      28.12800000      30.87300000 
H      18.38200000      25.90300000      30.22400000 
H      18.02800000      27.24700000      31.25400000 
H      18.32800000      29.63700000      30.21400000 
H      18.04400000      26.07700000      27.87100000 
H      17.81000000      30.97100000      28.22200000 
H      17.47000000      27.43000000      25.90700000 
H      17.22600000      29.64100000      25.04700000 
N      21.65800000      26.05100000      32.39900000 
C      22.07000000      25.72400000      33.71600000 
C      22.02200000      27.00400000      34.59800000 
O      22.21900000      28.11400000      34.09200000 
C      23.46100000      25.15300000      33.65700000 
C      24.13200000      24.90900000      34.98700000 
O      24.77500000      25.83300000      35.51300000 
N      23.95700000      23.74900000      35.60400000 
H      22.30200000      25.99700000      31.63100000 
H      21.39300000      25.01100000      34.14700000 
H      23.41500000      24.17400000      33.09600000 
H      24.13000000      25.79000000      33.08500000 
H      24.35400000      23.59100000      36.47800000 
H      23.42400000      22.98200000      35.18100000 
N      21.74500000      26.82200000      35.85600000 
C      21.55500000      28.01900000      36.76500000 
C      22.75800000      28.88700000      36.86400000 
O      22.59400000      30.09900000      37.06600000 
C      21.18500000      27.49500000      38.16200000 
H      21.53300000      25.95200000      36.23700000 
H      20.76200000      28.60300000      36.36900000 
H      21.01500000      28.36100000      38.82100000 
H      20.23900000      26.93100000      38.13000000 
H      21.94200000      26.88400000      38.58300000 
N      23.96500000      28.35900000      36.75800000 
C      25.20700000      29.12800000      36.82800000 
C      25.52200000      29.69600000      35.42900000 
O      25.90000000      30.89100000      35.33200000 
C      26.37100000      28.33100000      37.41600000 
C      27.61600000      29.21000000      37.56400000 
C      25.99900000      27.67900000      38.72200000 
H      24.06900000      27.35700000      36.54700000 
H      25.00100000      29.99800000      37.46300000 
H      26.60200000      27.53000000      36.68800000 
H      28.43200000      28.62900000      37.94900000 
H      27.94100000      29.65000000      36.61200000 
H      27.41500000      30.02700000      38.25400000 
H      26.87600000      27.14900000      39.13900000 
H      25.72200000      28.44500000      39.47300000 
H      25.20400000      26.98000000      38.65300000 
N      25.43500000      28.90800000      34.37800000 
C      25.82800000      29.35300000      33.08900000 
C      24.89600000      30.34800000      32.44000000 
O      25.39400000      31.23900000      31.69800000 
C      26.03900000      28.18600000      32.07200000 
C      27.13100000      27.15400000      32.41900000 
C      27.28600000      26.19200000      31.27900000 
C      28.45800000      27.81900000      32.79500000 
H      25.11900000      27.94700000      34.50100000 
H      26.77800000      29.88400000      33.16900000 
H      25.09200000      27.68000000      31.93000000 
H      26.29700000      28.63700000      31.11600000 
H      26.79600000      26.60100000      33.30000000 
H      28.03200000      25.44400000      31.49600000 
H      26.37500000      25.70200000      31.01800000 
H      27.63600000      26.73600000      30.36700000 
H      29.23100000      27.05300000      32.92500000 
H      28.80200000      28.46900000      31.95900000 
H      28.42500000      28.40800000      33.68600000 
N      23.56700000      30.26100000      32.63400000 
C      22.69000000      31.17200000      31.87500000 
C      22.97100000      32.62200000      32.09600000 
O      23.09100000      33.38200000      31.13100000 
C      21.23000000      30.72900000      32.16700000 
C      20.12200000      31.72300000      31.68300000 
O      20.30600000      32.29600000      30.59600000 
O      19.13000000      31.81800000      32.41900000 
H      23.19800000      29.56600000      33.17300000 
H      22.86800000      31.03400000      30.82900000 
H      21.06700000      29.82300000      31.65100000 
H      21.07200000      30.55400000      33.22100000 
N      23.11800000      33.14900000      33.34200000 
C      23.42700000      34.54800000      33.48900000 
C      24.72900000      34.92100000      32.85600000 
O      24.85400000      36.12200000      32.34700000 
C      23.42600000      34.79800000      35.02400000 
C      22.51000000      33.66300000      35.53900000 
C      22.87500000      32.51900000      34.64800000 
H      22.64000000      35.15200000      33.00100000 
H      24.41100000      34.68500000      35.41300000 
H      23.05900000      35.77600000      35.25800000 
H      22.69000000      33.45700000      36.58100000 
H      21.46600000      33.94000000      35.42600000 
H      23.73400000      31.96800000      34.99000000 
H      22.02600000      31.76300000      34.57000000 
N      25.72200000      34.10300000      32.84400000 
C      27.04400000      34.38600000      32.25500000 
C      26.93700000      34.36600000      30.76400000 
O      27.59000000      35.34300000      30.09900000 
C      28.06100000      33.37700000      32.72100000 
C      28.41300000      33.40700000      34.19900000 
C      29.27700000      32.19400000      34.58600000 
C      29.06900000      34.71200000      34.57100000 
H      25.57600000      33.16000000      33.18300000 
H      27.32700000      35.37100000      32.56000000 
H      27.71700000      32.34700000      32.44200000 
H      28.99800000      33.52700000      32.14600000 
H      27.46100000      33.32400000      34.77600000 
H      29.49000000      32.19600000      35.62700000 
H      28.75200000      31.27000000      34.34700000 
H      30.19500000      32.21000000      34.03900000 
H      29.46000000      34.67800000      35.62900000 
H      29.93200000      34.89500000      33.94200000 
H      28.42900000      35.56300000      34.51300000 
N      26.29000000      33.47200000      30.14500000 
C      26.12200000      33.47000000      28.67800000 
C      25.31300000      34.71100000      28.24300000 
O      25.61900000      35.35500000      27.28500000 
C      25.45700000      32.18100000      28.18800000 
C      25.10200000      32.30700000      26.71000000 
C      26.38600000      30.98100000      28.43800000 
H      25.84400000      32.75000000      30.65100000 
H      27.07200000      33.58300000      28.20100000 
H      24.53200000      32.03200000      28.75600000 
H      24.76200000      31.32800000      26.32400000 
H      24.32200000      33.01600000      26.52400000 
H      25.97200000      32.58600000      26.13500000 
H      25.84500000      30.04700000      28.14000000 
H      27.25600000      31.04600000      27.83900000 
H      26.64400000      30.87200000      29.45900000 
N      24.25100000      35.02700000      29.02800000 
C      23.44200000      36.18900000      28.71200000 
C      24.23500000      37.49300000      28.81300000 
O      24.12200000      38.33800000      27.98600000 
C      22.17000000      36.17300000      29.60300000 
O      21.44600000      34.94800000      29.34800000 
C      21.25900000      37.35900000      29.36200000 
H      23.99800000      34.44400000      29.80300000 
H      23.10900000      36.13800000      27.69300000 
H      22.49200000      36.15600000      30.65100000 
H      21.61700000      34.26200000      29.94500000 
H      20.38700000      37.26200000      29.98500000 
H      21.74800000      38.28900000      29.59300000 
H      20.95000000      37.37500000      28.32400000 
N      25.06300000      37.61500000      29.88900000 
C      25.89700000      38.80400000      30.02500000 
C      26.90300000      38.92000000      28.84000000 
O      27.11500000      39.99200000      28.35400000 
C      26.65000000      38.77900000      31.35400000 
H      25.07000000      36.94200000      30.62500000 
H      25.31000000      39.67800000      29.96700000 
H      27.28800000      39.63000000      31.44300000 
H      25.95500000      38.75700000      32.17700000 
H      27.28700000      37.86700000      31.43500000 
N      27.48500000      37.74200000      28.48100000 
C      28.40600000      37.77800000      27.33100000 
C      27.70800000      38.20300000      26.02300000 
O      28.24200000      39.06500000      25.33600000 
C      29.04300000      36.36400000      27.19900000 
C      29.97300000      36.15500000      26.01900000 
C      31.09600000      37.14400000      25.97800000 
C      30.54400000      34.71700000      26.14200000 
H      27.34100000      36.94700000      28.92700000 
H      29.19200000      38.50800000      27.49700000 
H      29.57500000      36.18000000      28.13500000 
H      28.22600000      35.64200000      27.16800000 
H      29.40100000      36.21600000      25.11600000 
H      31.81100000      36.89900000      25.16300000 
H      30.76400000      38.16900000      25.78500000 
H      31.67000000      37.15500000      26.89500000 
H      31.16700000      34.50100000      25.26700000 
H      31.11300000      34.60400000      27.00500000 
H      29.73200000      33.97900000      26.13800000 
N      26.56500000      37.67600000      25.73300000 
C      25.87500000      38.00300000      24.51200000 
C      25.46300000      39.51700000      24.51500000 
O      25.48200000      40.14700000      23.42900000 
C      24.63900000      37.17600000      24.20600000 
C      24.96200000      35.65800000      23.92700000 
C      23.64600000      34.90500000      23.83700000 
C      25.77300000      35.52700000      22.63000000 
H      26.13700000      36.95000000      26.32000000 
H      26.55700000      37.94600000      23.67500000 
H      23.97100000      37.20900000      25.10100000 
H      24.10900000      37.57000000      23.39500000 
H      25.52800000      35.26900000      24.74800000 
H      23.84100000      33.82100000      23.65900000 
H      23.07100000      34.96800000      24.75900000 
H      23.02300000      35.25200000      23.03100000 
H      25.90400000      34.44500000      22.41300000 
H      25.27800000      35.96700000      21.80400000 
H      26.76100000      35.93800000      22.72700000 
N      25.09400000      40.04300000      25.65300000 
C      24.72600000      41.44700000      25.74300000 
C      25.94900000      42.41000000      25.57300000 
O      25.78800000      43.47900000      25.02400000 
H      25.00000000      39.50000000      26.47700000 
H      24.02200000      41.73200000      24.97900000 
H      24.30500000      41.64800000      26.70700000 
N      34.79900000      35.17500000      32.88000000 
C      33.84800000      34.58200000      33.85900000 
C      33.24900000      33.25200000      33.30400000 
O      33.05800000      32.34100000      34.07800000 
C      32.72400000      35.56000000      34.19100000 
C      33.22400000      36.74400000      35.01700000 
O      34.21900000      36.71800000      35.66000000 
N      32.38600000      37.79900000      34.95700000 
H      34.59500000      36.06800000      32.54000000 
H      34.37600000      34.30100000      34.74400000 
H      32.20800000      35.87200000      33.31000000 
H      32.01400000      35.02900000      34.82200000 
H      32.62700000      38.62900000      35.49900000 
H      31.58100000      37.85500000      34.39700000 
N      32.97800000      33.19600000      32.01800000 
C      32.51200000      31.92800000      31.41500000 
C      33.60500000      30.87400000      31.44400000 
O      33.35300000      29.74000000      31.78500000 
C      31.95600000      32.19800000      29.99400000 
C      31.34800000      31.00800000      29.29100000 
C      30.18500000      30.34000000      30.07200000 
C      30.87000000      31.42200000      27.89700000 
H      33.06000000      33.98300000      31.41300000 
H      31.72300000      31.52900000      32.05800000 
H      31.17500000      32.95900000      30.12000000 
H      32.72100000      32.62400000      29.40900000 
H      32.12600000      30.23100000      29.15200000 
H      29.72000000      29.55400000      29.45500000 
H      30.50900000      29.90300000      30.97900000 
H      29.41900000      31.07900000      30.27400000 
H      30.50700000      30.55500000      27.32100000 
H      30.05500000      32.12900000      27.97100000 
H      31.66600000      31.88300000      27.32200000 
N      33.97400000      28.89500000      34.77700000 
C      32.98500000      27.92500000      35.03500000 
C      33.13400000      26.71300000      34.13600000 
O      32.84800000      25.56000000      34.57500000 
C      31.56600000      28.50100000      34.93100000 
C      31.27000000      29.50300000      36.00300000 
C      31.30400000      29.00500000      37.39500000 
O      31.13400000      27.70600000      37.60700000 
O      31.45200000      29.81100000      38.35000000 
H      33.79400000      29.70000000      34.22400000 
H      33.08900000      27.53800000      36.02000000 
H      31.46100000      28.99400000      33.90600000 
H      30.85800000      27.71300000      34.94400000 
H      31.94700000      30.38600000      35.95000000 
H      30.26200000      29.92100000      35.84200000 
N      33.57500000      26.86100000      32.86600000 
C      33.82500000      25.74500000      32.01800000 
C      34.99900000      24.90900000      32.50800000 
O      34.96900000      23.64900000      32.42300000 
C      33.98400000      26.15400000      30.57800000 
C      32.77100000      26.87300000      29.95200000 
C      33.09100000      27.26000000      28.51200000 
C      31.45100000      26.11400000      30.06700000 
H      33.76100000      27.79300000      32.54100000 
H      32.96500000      25.03700000      32.11400000 
H      34.86300000      26.75400000      30.46400000 
H      34.15600000      25.22600000      29.97400000 
H      32.65500000      27.82700000      30.51400000 
H      32.30600000      27.85500000      28.08800000 
H      34.01700000      27.77800000      28.42500000 
H      33.16500000      26.32700000      27.90100000 
H      30.67700000      26.63500000      29.56900000 
H      31.55800000      25.11800000      29.59800000 
H      31.15600000      25.95600000      31.10200000 
N      31.15200000      23.15800000      35.30000000 
C      29.82200000      23.52400000      35.65100000 
C      28.95200000      23.44800000      34.37600000 
O      29.35500000      23.91900000      33.29900000 
C      29.79400000      24.97300000      36.13300000 
O      30.74200000      25.07900000      37.23900000 
C      28.41100000      25.36400000      36.63200000 
H      31.88000000      23.84000000      35.29900000 
H      29.43400000      22.88100000      36.38900000 
H      30.10200000      25.62200000      35.36300000 
H      30.94200000      25.97400000      37.41800000 
H      28.47900000      26.35200000      37.12300000 
H      27.69900000      25.44900000      35.84600000 
H      28.04100000      24.66800000      37.38100000 
N      27.73500000      22.84000000      34.51300000 
C      26.84000000      22.82700000      33.38200000 
C      27.09500000      21.73100000      32.37300000 
O      26.42900000      21.80000000      31.29600000 
H      27.48000000      22.47800000      35.36000000 
H      25.83400000      22.64500000      33.79200000 
H      26.81600000      23.76400000      32.88000000 
N      26.69600000      17.74700000      31.39500000 
C      25.85000000      16.63100000      31.74100000 
C      26.19900000      15.40600000      30.86200000 
O      26.64300000      15.60400000      29.72400000 
C      24.33600000      16.94600000      31.54300000 
C      23.87100000      18.09100000      32.39600000 
C      24.04400000      19.42500000      32.14600000 
C      23.14700000      17.78800000      33.63100000 
C      23.62700000      20.42000000      32.92400000 
C      22.68600000      18.81100000      34.43200000 
C      22.92400000      20.11000000      34.07100000 
O      22.48700000      21.20200000      34.87500000 
H      26.68500000      18.06700000      30.46700000 
H      26.01900000      16.37600000      32.79000000 
H      24.21600000      17.23900000      30.48900000 
H      23.77700000      16.08300000      31.70800000 
H      24.59800000      19.67500000      31.20700000 
H      22.96600000      16.77700000      33.87500000 
H      23.78700000      21.46300000      32.68600000 
H      22.15100000      18.56100000      35.33100000 
H      21.93400000      20.93600000      35.61300000 
H      25.83649729      26.33993343      20.76195127 
H      22.81851553      24.24377283      19.91154065 
H      27.87426904      20.08610161      27.54158632 
H      26.84905783      42.14039814      25.91536055 
H      35.61376414      35.24328031      33.25616113 
H      34.53908337      31.11495737      31.18050844 
H      34.25918947      29.24743987      35.55446582 
H      35.80219014      25.35677847      32.90091225 
H      31.45032191      22.52786463      35.86915152 
H      27.75689583      21.00922624      32.57532784 
H      26.46645890      18.46278327      31.88993958 
H      26.06418462      14.48100367      31.21725568 
