 396 
 
N                33.5928974062       16.8774692538       18.3929051919
C                33.2390098550       16.6445718616       19.7822310075
C                32.2541512678       15.4712384396       19.8300912472
O                31.7720429890       15.0138746950       18.7989872946
C                32.5449412157       17.8794637311       20.4017234265
C                33.2566083438       19.1863993397       20.1635653179
C                34.6381613683       19.2956300625       20.1884667902
C                32.5216483427       20.3462567674       19.9451461052
C                35.2706263093       20.4968966523       19.9312148470
C                33.1394972322       21.5576414841       19.7110204787
C                34.5271378325       21.6369423271       19.6647212024
O                35.1120708431       22.8289854872       19.3784186171
H                32.8489625844       16.6707529066       17.7367713487
H                34.1452117504       16.3989890351       20.3430977799
H                31.5339642344       17.9495050416       19.9949734330
H                32.4711768466       17.7002423786       21.4768983966
H                35.2443709311       18.4273046236       20.3788501751
H                31.4445142265       20.2952373690       19.9658547800
H                36.3505002922       20.5496002960       19.9189012114
H                32.5587863662       22.4510637204       19.5585616296
H                36.0754939048       22.7289207833       19.3537304408
N                31.9110821650       15.0282237406       21.0479450402
C                30.8100311290       14.1074518775       21.2041674766
C                30.0180013869       14.4598289688       22.4602466819
O                30.5254124877       15.0951149974       23.3760385353
C                31.2858438563       12.6426226278       21.3266457117
O                31.7305060401       12.3014928915       22.6138680191
H                32.3114725220       15.4334123586       21.8861626786
H                30.1853364125       14.1878440223       20.3068752233
H                30.4452344674       11.9791169084       21.1088289094
H                32.0742017642       12.4748955466       20.5801959640
H                32.3951962350       12.9459124439       22.9147266377
N                28.7573979710       14.0256285150       22.4617884334
C                27.8729548624       14.0869943280       23.6085076214
C                27.3301250573       12.6769342887       23.8380880792
O                26.7629685934       12.0735112431       22.9317435873
C                26.6844288918       15.0302388898       23.3267373764
C                27.1630123252       16.4773164002       23.1591703983
C                25.6750510895       14.9146927743       24.4657150193
C                26.2582813328       17.2881982657       22.2389764507
H                28.3992180322       13.4993637014       21.6757455400
H                28.4376447664       14.4342958163       24.4782544527
H                26.2216010133       14.6884746573       22.3926317285
H                27.2042243956       16.9319375338       24.1504345592
H                28.1749787306       16.4794511990       22.7507643765
H                24.8855031136       15.6535297760       24.3594891051
H                25.2256570626       13.9231529357       24.4796481589
H                26.1741072084       15.0700974732       25.4214619179
H                26.5730398121       18.3289263944       22.2140697944
H                26.3058231300       16.8892040234       21.2286840734
H                25.2283171770       17.2421554243       22.5791712501
N                27.5199362536       12.1641236927       25.0535548555
C                26.9320112362       10.9049000008       25.4458391796
C                25.6394159294       11.1778541149       26.2322486532
O                25.5585166159       12.0794636489       27.0502604629
C                27.8814267997       10.1004432265       26.3310101445
C                28.2148384678       10.9161266803       27.6234557401
O                27.8232202756       10.4427578069       28.7034304053
O                28.8606487569       11.9719386127       27.4551868334
H                27.9861181539       12.6600555299       25.8078024082
H                26.7037335502       10.3605654565       24.5214753463
H                27.4185270343        9.1523796346       26.6127904144
H                28.8126176818        9.9155457597       25.7943471315
N                24.6426749780       10.3518075357       25.8932509698
C                23.2805729738       10.2914210855       26.3969411463
C                22.8782299588        8.8116131897       26.2154014054
O                23.6605439238        8.0379885857       25.6635118636
C                22.3789790699       11.2701489438       25.6041172319
C                21.7649779027       12.4241150839       26.4136644936
C                22.7978318375       13.3211585351       27.0858036985
C                20.9082446997       13.2724813634       25.4774588657
H                24.8641590327        9.5448915048       25.3158363679
H                23.2738012535       10.5471744948       27.4633920544
H                22.9885696286       11.6917638866       24.8039554685
H                21.5761732635       10.7154844113       25.1138104800
H                21.1185587147       12.0061820006       27.1960263128
H                22.2915874358       13.9966810409       27.7693493590
H                23.5349909191       12.7570163194       27.6476513083
H                23.3443441240       13.9125062453       26.3519362109
H                20.3476182997       14.0100865273       26.0432799848
H                21.5370069953       13.7981102897       24.7621979208
H                20.2134962818       12.6493934450       24.9248354229
N                21.6962510955        8.3760379531       26.6594267031
C                21.4007019752        6.9461132932       26.6386226965
C                21.9125797031        6.2432417896       25.3794029649
O                22.5980395996        5.2349978525       25.4455515208
C                19.8744129010        6.8540339592       26.8039729446
C                19.3766195654        8.2991607736       26.7364160600
C                20.5775132806        9.1013236769       27.2245062207
H                21.9234795472        6.4602416514       27.4728829303
H                19.4328421842        6.2374549348       26.0251872602
H                19.6304389466        6.4356982577       27.7774365453
H                19.1389212504        8.5755658542       25.7111512986
H                18.4978754400        8.4430816262       27.3602423782
H                20.5603289848       10.1304182041       26.8878891072
H                20.6312464983        9.0711394997       28.3170514622
N                21.4366282734        6.7258779166       24.2177544485
C                21.9136655956        6.2755567663       22.9261219784
C                21.3595663386        7.2113863661       21.8469777227
O                20.5211220801        8.0485300250       22.1351925069
H                20.9250557366        7.6012431669       24.1768771109
H                23.0089039090        6.2782998112       22.9100590868
H                21.5726705231        5.2513321112       22.7424237049
N                21.8467695821        7.0316458223       20.6133617608
C                21.5390071614        7.8688953714       19.4636019685
C                22.1393035374        7.1729324896       18.2333947175
O                22.8370905455        6.1718487679       18.3576455767
C                22.0130185679        9.3294606895       19.6549675372
C                23.3894374369        9.4929151542       20.3139699987
C                24.5232424251        9.0111579804       19.4124469929
C                23.6007556963       10.9589634960       20.6962112245
H                22.5476108743        6.3228294146       20.4228271407
H                20.4513162348        7.8991932510       19.3256668486
H                22.0212698332        9.8293548356       18.6854452219
H                21.2746006337        9.8275009297       20.2874988872
H                23.4069645277        8.9057789001       21.2389420448
H                25.4784003703        9.1805839332       19.9053439631
H                24.4356450134        7.9483715975       19.1989865625
H                24.5193145183        9.5554749941       18.4697020296
H                24.5588657966       11.0944586446       21.1965899845
H                23.5861900325       11.5917176065       19.8120825443
H                22.8145693786       11.2916309076       21.3711729168
N                21.8054477916        7.6646674593       17.0259911420
C                22.4306158231        7.1116173386       15.8381562454
C                23.8836289515        7.5982930610       15.7464625397
O                24.2093729965        8.7385773468       16.0317876957
C                21.6915447646        7.5109830673       14.5682011411
H                21.3866678372        8.5786011344       16.9499527043
H                22.4164857964        6.0241363387       15.9708227078
H                22.1176328264        6.9870042200       13.7176128501
H                20.6387815322        7.2595937750       14.6524803501
H                21.7957113093        8.5789056396       14.3806447618
N                26.1484170652       11.6279753105       16.1976549125
C                26.9249196714       11.9044661537       17.3816559907
C                27.9827737375       12.9966188921       17.1796280568
O                28.2501929697       13.7778348782       18.0796284121
C                27.6240041471       10.6135354093       17.8239827020
O                28.2125516191       10.8039952022       19.0861943891
H                26.2686152794       10.7192742934       15.7647728046
H                26.2686490947       12.2589575939       18.1885440824
H                26.8669819127        9.8200102497       17.8617119116
H                28.3765212843       10.3450169956       17.0694320838
H                28.5965937286        9.9632290418       19.3684778260
N                25.9743659476       23.0449374176       20.1188584546
C                25.5483667859       22.3122749975       21.2985281305
C                24.0199966793       22.3304361588       21.3556112340
O                23.3583992617       21.3020659360       21.4480382009
C                26.1819002877       22.8935025182       22.5705361992
C                25.4119397093       22.4343194433       23.8078304441
C                27.6482684459       22.4762321619       22.6607881462
H                26.5945545956       23.8379589023       20.2350322255
H                25.8315871361       21.2597040374       21.1712689395
H                26.1245127424       23.9821015460       22.4915893300
H                25.9515898775       22.7235936721       24.7034381597
H                24.4203137314       22.8764398687       23.8286749945
H                25.3036418167       21.3527281456       23.7971621426
H                28.0856563734       22.8682169607       23.5746159846
H                27.7311176670       21.3918391038       22.6691952347
H                28.2048309752       22.8661683372       21.8133701920
N                22.2446842080       20.2366307942       18.6547074078
C                22.2482984683       18.8014739657       18.8491680946
C                21.2883703951       18.4544611939       19.9882612057
O                20.4816705145       17.5364154955       19.8736185289
C                23.6576497162       18.2427675751       19.0864980309
C                23.9731768181       17.0549869468       18.1639230725
C                25.4450999086       16.6631342110       18.2635905850
C                23.1045934783       15.8412723689       18.4884717293
H                23.0762474928       20.7714725056       18.8766049881
H                21.8194155491       18.3478806530       17.9442741469
H                24.3729559149       19.0458084013       18.8983850514
H                23.7649219307       17.9305540438       20.1265625523
H                23.7696527840       17.3636137082       17.1317318973
H                25.6584036645       15.8503241749       17.5728675078
H                26.0891598831       17.5054792904       18.0241780124
H                25.6767521722       16.3184324550       19.2681081106
H                23.2719552553       15.0639713359       17.7456095215
H                23.3693085265       15.4410193505       19.4647937372
H                22.0466500347       16.0916073589       18.4999886222
N                18.1645968033       16.0779467353       19.5043113892
C                18.0535799505       14.9541754969       20.4072091906
C                16.6337101689       14.8605328201       20.9478789984
O                15.9493644262       13.8614611914       20.7739833251
C                19.0316982356       15.0724620111       21.5846298263
C                18.5506418074       14.2535516654       22.7388257176
C                17.9745593837       14.7115897775       23.8898017886
C                18.5276837927       12.8286473092       22.8102618308
N                17.6045765643       13.6599081001       24.6792895138
C                17.9313276323       12.4936318614       24.0511507165
C                18.9670636046       11.8129297082       21.9622739820
C                17.7963730547       11.1735835930       24.4659752051
C                18.8074559149       10.5091607191       22.3665809101
C                18.2415399535       10.1946639397       23.6044380596
H                18.9718425260       16.6817648150       19.6204915943
H                18.2336933563       14.0232843033       19.8529400422
H                20.0232914139       14.7529658275       21.2623807470
H                19.0802075271       16.1172659916       21.8832228435
H                17.8097959192       15.7252419605       24.2057895448
H                17.1641078060       13.7341559385       25.5791072054
H                19.4239412687       12.0439036744       21.0113692375
H                17.3742060927       10.9351898057       25.4305014379
H                19.1274333160        9.7025828427       21.7302243678
H                18.1475624049        9.1511751173       23.8661875581
N                14.2186136647       12.0432800040       19.7552447932
C                14.0927427651       11.2075338621       20.9286782068
C                13.3329710713       11.9609430607       22.0308742832
O                13.8532166971       12.3513302971       23.0617813367
C                15.4692112514       10.7991479861       21.4565417423
C                16.2660598913       10.0034854815       20.4680907440
C                17.1246342261       10.6372941083       19.5788343423
C                16.1824187455        8.6195863019       20.4384429612
C                17.9074560202        9.9136666155       18.7026847826
C                16.9495138622        7.8810637652       19.5569053713
C                17.8229032799        8.5252325427       18.6911943309
O                18.6340654331        7.8342634642       17.8376079895
H                14.9702270076       12.7188228816       19.8098516841
H                13.4983106902       10.3337658397       20.6343962814
H                15.9994359020       11.7148442928       21.7185705797
H                15.3139737756       10.2271562841       22.3732581318
H                17.1872130959       11.7151415816       19.5982671760
H                15.5188784720        8.1081964787       21.1202259751
H                18.5848447036       10.4057640996       18.0215069562
H                16.8718504527        6.8024567221       19.5462351701
H                18.3979879827        6.8950268493       17.8459012325
N                13.6765446882        6.2185501207       25.8422810264
C                14.7672895150        5.9725454539       26.7482598775
C                14.6246896146        6.8892452271       27.9773405101
O                13.8844847229        7.8540106738       28.0013317084
C                16.1182077020        6.2310482601       26.0697736253
C                16.3955183830        5.1810171375       24.9979192304
O                15.7534616188        5.1106002025       23.9644577728
N                17.4050453377        4.3405876842       25.2799668932
H                13.7879031002        6.9295880815       25.1244822899
H                14.6843100158        4.9305862769       27.0818593727
H                16.0639867210        7.2046640595       25.5793083902
H                16.9172727595        6.2493010868       26.8111719306
H                17.6459658070        3.6269563145       24.6103417975
H                17.9123452057        4.3678136938       26.1478010585
N                17.6814577789        8.3629986729       31.1047873477
C                19.0297912177        8.8998175423       31.0241697648
C                19.8490304375        8.5417521461       32.2703614107
O                19.3699530837        8.6639505663       33.3964407884
C                18.9694609964       10.4510012803       30.8679979636
C                17.9374150442       11.0641300302       31.8154668324
C                20.3283099386       11.1081643787       31.1162427932
H                17.1154494418        8.6786817400       31.8767319261
H                19.4694931247        8.4498191716       30.1318458617
H                18.6630965783       10.6580778924       29.8368299113
H                18.0395921319       12.1451034914       31.8023207785
H                16.9230878643       10.8268412123       31.5072973400
H                18.0979512896       10.7114134497       32.8315102769
H                20.2605278314       12.1674231650       30.8780511644
H                20.6222959494       11.0020385768       32.1587803010
H                21.1051594580       10.6781118235       30.4924141780
N                21.1210082991        8.1712087213       32.0678289343
C                22.0045495036        7.7998162299       33.1795261628
C                22.5906466463        9.0366717009       33.8957264173
O                23.7748125455        9.3373364200       33.8383639370
C                23.1062526448        6.9692308819       32.5241121835
C                23.1972031687        7.5680951105       31.1251613016
C                21.7373724077        7.8429985500       30.7840441213
H                21.4367074492        7.2386156364       33.9319082691
H                24.0410090624        7.0509818400       33.0724952303
H                22.8152270365        5.9222720602       32.4712595766
H                23.7563843993        8.5005301792       31.1600536615
H                23.6740668096        6.9056622977       30.4070107305
H                21.6514968061        8.6650609980       30.0746122408
H                21.2647347781        6.9480093431       30.3637123568
N                24.1820770862       15.6974640988       37.9057782443
C                24.8485363132       15.8316791364       36.6275482026
C                24.1258205521       14.9252822812       35.6237110494
O                23.7515601401       13.8015969043       35.9340105649
C                26.3333910866       15.3934849502       36.7817863877
C                27.1368335117       16.5595263541       37.3738088560
C                26.9146716156       14.8903920730       35.4623449447
C                28.4840913222       16.1401625462       37.9548322378
H                24.0195413196       14.7370431092       38.1927206062
H                24.7940708189       16.8769481361       36.3107748843
H                26.3459953091       14.5672521058       37.5016691594
H                27.2883603782       17.3166114057       36.6023880221
H                26.5389235773       17.0112201780       38.1669820601
H                27.9717531884       14.6786901924       35.5833641347
H                26.4127605987       13.9790923089       35.1489202250
H                26.7942770381       15.6294808254       34.6746222575
H                28.9685285632       16.9954470788       38.4200572083
H                28.3501064779       15.3622268675       38.7033341914
H                29.1456703742       15.7671491614       37.1786708835
N                24.5140407340       15.7901000395       31.4767640734
C                24.8810944863       15.9945415782       30.0814769759
C                26.3841229998       16.2780128360       30.0202450799
O                26.8247939753       17.2726737225       30.5801835085
C                24.0893262117       17.2254660167       29.5956325355
C                24.0974188867       17.4885339072       28.1145218567
C                25.0443109073       18.3149919337       27.5254039151
C                23.0785342975       16.9782459670       27.3186639559
C                24.9596392715       18.6436900575       26.1850683129
C                22.9850838064       17.2914499102       25.9796074860
C                23.9212470842       18.1466334222       25.4073402672
O                23.7668278224       18.4783384608       24.0967051584
H                24.3282263912       16.6339843021       32.0021845895
H                24.6117779974       15.0973352787       29.5194518922
H                23.0537878767       17.0878744129       29.9123439441
H                24.5046204781       18.0962962447       30.1077565833
H                25.8423907799       18.7366414101       28.1173657088
H                22.3270424923       16.3424600397       27.7570215401
H                25.6856746114       19.3123646771       25.7476009385
H                22.1753433497       16.9120074076       25.3758282756
H                24.4709360358       19.0793602639       23.8187758286
N                27.1482499575       15.3601597842       29.4125016158
C                28.5721591702       15.5467174914       29.2367177682
C                28.8734719717       15.8440194361       27.7726340634
O                28.2109609875       15.3676803724       26.8583106465
C                29.3751439605       14.2900234143       29.6634865796
O                29.0936887421       13.9699325134       31.0124575096
C                30.8760308849       14.5472347154       29.5519053660
H                26.7259554902       14.6202002889       28.8696261665
H                28.8698138631       16.3874351451       29.8710918967
H                29.0954617426       13.4557048964       29.0022255750
H                28.2421506632       13.5235725534       31.0588418564
H                31.4089623536       13.7020815674       29.9764772377
H                31.1672796615       14.6455204050       28.5110010620
H                31.1455019782       15.4504722716       30.0946172505
N                29.9125438369       16.6634233571       27.5888604535
C                30.5018277811       16.9051811218       26.2910901828
C                31.9939274178       16.5985121547       26.3930981549
O                32.6407591600       16.9370092468       27.3795991240
C                30.3268532548       18.3713325436       25.8384764759
C                30.7471926617       18.5108498293       24.3777044792
C                28.8807193043       18.8181936579       26.0318486942
H                30.3869595495       17.0662912207       28.3894219991
H                30.0161455752       16.2371015756       25.5738457037
H                30.9739769493       18.9926677868       26.4676385503
H                30.6266624175       19.5402989488       24.0544832303
H                31.7886532175       18.2297192379       24.2379397103
H                30.1334758756       17.8683144018       23.7503530400
H                28.7762715090       19.8577244182       25.7357211363
H                28.2164231322       18.2037182725       25.4299461068
H                28.5833858579       18.7197065049       27.0730705926
N                32.5131230694       15.9599432376       25.3393101076
C                33.9235002294       15.6838239312       25.2232890087
C                34.4733486254       16.2629620350       23.9133120409
O                33.7738375518       16.4033986415       22.9190227222
C                34.2235884498       14.1720778202       25.2213763389
O                33.9445461507       13.6352996342       23.9409541971
H                31.9306519835       15.7204795974       24.5410022476
H                34.4178937981       16.1517038710       26.0818707836
H                35.2805653123       14.0337651532       25.4702272005
H                33.6004459669       13.6818782816       25.9813017972
H                34.4032568380       12.7913521352       23.8532397445
N                32.9867737988       19.1486894765       30.0797289214
C                32.0349917070       19.8972541600       30.8803487252
C                30.8022319593       19.0149400526       31.0899048189
O                30.5098380894       18.1296222727       30.2901974015
C                31.6859488602       21.2264806342       30.1554429026
C                31.0196501652       20.9681232596       28.8072353436
C                30.8294461071       22.1502940059       31.0133617089
H                32.5736850612       18.4720691210       29.4480273069
H                32.4889710179       20.1465414771       31.8443395082
H                32.6496216585       21.7175948707       29.9784410267
H                30.7895480404       21.9157461789       28.3265109632
H                31.6843190417       20.4019032001       28.1587343463
H                30.0942009290       20.4110548712       28.9332706813
H                30.7951713243       23.1362174161       30.5561619385
H                29.8156082055       21.7693151148       31.1049652048
H                31.2534901363       22.2532363549       32.0064156284
N                30.0862536907       19.2914266897       32.1841992198
C                28.8607515337       18.5968301328       32.5242759723
C                27.8723454529       19.6061183050       33.1052358473
O                28.2663623554       20.5057209892       33.8488471552
C                29.1110950897       17.4655522871       33.5277526315
H                30.4119086770       20.0122594388       32.8159034008
H                28.4574113021       18.1712609750       31.6026667381
H                28.1631535887       17.0473846870       33.8517333901
H                29.6911285339       16.6776765231       33.0527506653
H                29.6513639349       17.8317180225       34.3982360175
H                33.8127716986       17.7428500996       18.2798950720
H                24.6024457352        6.9723368853       15.4440037863
H                25.2717822680       11.6858559680       16.3930039894
H                28.4608112474       13.0739585299       16.3047002200
H                26.4156982937       22.4905455773       19.5639932027
H                23.5285277012       23.2004965524       21.3174909628
H                22.0864698467       20.4220131409       17.7883347389
H                21.3129529859       18.9780727816       20.8398635785
H                18.2052390943       15.7791447487       18.6563340446
H                16.2413384156       15.6260832723       21.4577583099
H                14.3770308396       11.5276874404       19.0347808405
H                12.3579611284       12.1551049912       21.9229078259
H                13.4872962011        5.4648608582       25.3882573424
H                15.1546419711        6.7025048003       28.8045517968
H                17.2254467943        8.5831895066       30.3607645129
H                21.9944534562        9.6313090046       34.4351336448
H                24.6820794470       16.0828859636       38.5472200774
H                23.9513510249       15.2485474630       34.6936250285
H                23.7658100703       15.2918809329       31.5206798533
H                35.4323441097       16.5398160603       23.8526530788
H                33.4653966698       19.7173887281       29.5722830537
H                26.8998127766       19.5386364966       32.8824660128
