 56 
 
N                46.4516914504       54.3238435514       44.4232719112
C                45.2697952723       53.6290482293       43.8425318983
C                45.6090035675       52.3707527845       43.0469927778
O                45.1537485164       51.2782588822       43.3423071123
H                46.1343234458       55.2220266417       44.8203976571
H                46.8692900782       53.7638804865       45.1846495683
H                47.1720820626       54.5266045422       43.7111461192
H                44.5658223272       53.3529194966       44.6308076380
H                44.7312812455       54.3110452414       43.1709492868
N                41.3570171256       55.3881680266       42.5562668347
C                41.5452290548       56.5677831631       43.3705474903
C                42.2084519431       56.2426995150       44.7151162253
O                42.5720353626       55.1141065348       45.0108128443
H                40.4486403186       54.9390286326       42.5627594806
H                42.2014691028       57.2541410250       42.8226431166
H                40.5742735986       57.0365131178       43.5266949863
N                42.4036252304       57.2950859899       45.5327510576
C                43.1043522746       57.1354502428       46.7949461046
C                42.1936729547       56.8446157621       47.9896044179
O                42.6449115255       56.3782629354       49.0234575521
C                43.7726620738       58.4996872001       47.0078574427
C                42.7429580826       59.4594663113       46.4143047380
C                42.2124351063       58.6999582152       45.1956129583
H                43.8109194592       56.3037540254       46.7309292097
H                43.9747918415       58.6898181007       48.0590442605
H                44.7073486804       58.5520968550       46.4517431235
H                41.9433255887       59.6373376670       47.1314969795
H                43.1784641097       60.4161036442       46.1379333483
H                41.1639466692       58.9239234660       44.9879812211
H                42.7953781113       58.9481088033       44.3035543856
N                40.9204260639       57.2711144859       47.8639948252
C                39.9683948927       57.0349966998       48.9236047985
C                39.4006338579       55.6140020189       48.8468396944
O                39.3470485351       55.0009333488       47.7923649068
H                40.5459827788       57.3808888934       46.9335605741
H                40.4932658091       57.1730164174       49.8710806517
H                39.1509491587       57.7549733007       48.8380479189
N                38.9993652422       55.1183945182       50.0257030378
C                38.3991061921       53.8108177080       50.1701967789
C                36.9594907560       54.0104543321       50.6423118807
O                36.6606123047       54.8749898258       51.4533320879
C                39.1975046768       52.9486949957       51.1716089815
C                38.5698283279       51.5651979107       51.3007424264
C                40.6503181754       52.8298997032       50.7164152126
H                38.9852719491       55.7019325872       50.8488997298
H                38.4212320535       53.3476340008       49.1792608831
H                39.1609108684       53.4495944327       52.1451223971
H                39.1657313677       50.9408654873       51.9599330482
H                37.5655763582       51.6182239933       51.7113972412
H                38.5227124981       51.0746195127       50.3316578225
H                41.2223787482       52.2716815521       51.4519757058
H                40.7045624196       52.3070763637       49.7641849534
H                41.1112478976       53.8062616396       50.5898899608
H                46.2208992953       52.4277540992       42.2581109943
H                41.5073832164       55.5921229811       41.6926740978
H                36.2309201239       53.4250694792       50.2866302701
