 405 
 
N                16.2747385579       12.3224101543       22.1855822826
C                17.4351285365       13.1350129572       21.8729142338
C                18.5725871631       12.2051153654       21.4432453157
O                19.1483465207       12.3476319803       20.3701460149
C                17.8644467401       14.0319366262       23.0401641830
C                16.7317061142       14.9544132682       23.5199975260
C                19.1084897579       14.8238942269       22.6349657036
C                16.2082817560       15.9326250218       22.4747922808
H                15.8768913403       12.3416608380       23.1160894483
H                17.2038563248       13.7374717165       20.9852141377
H                18.1302260783       13.3655889513       23.8677936065
H                15.8997452779       14.3397444335       23.8684759666
H                17.1112399715       15.5223883746       24.3713639850
H                19.4040733556       15.4979844307       23.4332279825
H                19.9323418271       14.1475676868       22.4209855402
H                18.9217176125       15.4042012125       21.7359813930
H                15.4185838209       16.5409482123       22.9084933969
H                16.9973233630       16.5878476371       22.1179414636
H                15.7919591354       15.3999128265       21.6244341718
N                18.6665548486       10.9177187450       17.8723631788
C                19.1080281569       11.8210158356       16.8293579634
C                20.5395305391       11.5041207884       16.3823094185
O                20.8557606948       11.4670375220       15.1978585720
C                19.0438657430       13.2543814479       17.3423798187
H                18.3362989896       11.3131391866       18.7439488916
H                18.4678481529       11.6838657696       15.9469434841
H                19.6208410451       13.9130182624       16.6990535152
H                18.0080103240       13.5795757723       17.3734773072
H                19.4555714710       13.2868321475       18.3466973377
N                29.6824281157       18.7801865165       14.1039583529
C                28.6611254000       19.1745056426       15.0499288278
C                29.3175734848       19.8364342024       16.2648995807
O                28.9334915445       20.9168880708       16.7019503176
C                27.8350136083       17.9541958126       15.4736581523
C                26.6990908579       18.3778989695       16.3590557404
C                25.4629716883       18.6864304411       15.8052097433
C                26.8708026157       18.5140440505       17.7305671052
C                24.4218701818       19.1218203785       16.6056391038
C                25.8342085039       18.9580571109       18.5315032234
C                24.6062360304       19.2644061617       17.9706383340
H                29.6124341711       17.8580766945       13.6894639819
H                27.9982562782       19.9260029028       14.5942732198
H                27.4471999579       17.4705847576       14.5724469844
H                28.4898322384       17.2443051632       15.9807856320
H                25.3200656578       18.5690930713       14.7380313371
H                27.8263194156       18.2731372971       18.1692603998
H                23.4658171564       19.3552667357       16.1606559797
H                25.9800258787       19.0689282529       19.5949441708
H                23.7939805591       19.6098397416       18.5917914525
N                30.6087581169       23.3273160449       15.5897288282
C                29.5921115558       24.3271959159       15.3600777960
C                28.8942807390       24.7116544770       16.6573866066
O                28.5645276890       25.8853402971       16.8706825032
C                28.5735680854       23.8611600468       14.3167334586
C                27.7343304306       25.0250667614       13.7855110556
C                28.5254220884       25.9221768952       12.8310338236
C                27.7146570920       27.1461762680       12.3917611618
N                28.3651575903       28.4058843941       12.8498662112
H                30.5502292515       22.4410745798       15.1015656879
H                30.0949866381       25.2399197381       15.0139069568
H                29.1060737307       23.3853952312       13.4919657631
H                27.9288624378       23.1074554301       14.7719715975
H                26.8689977332       24.6291315380       13.2526630568
H                27.3598679915       25.6117370241       14.6256028569
H                29.4350195350       26.2569779198       13.3275698740
H                28.8117400391       25.3246232864       11.9679473440
H                27.6054853977       27.1835653991       11.3090038454
H                26.7065850581       27.0944702462       12.8029375801
H                27.7786134283       29.2142566294       12.6110825350
H                28.4997280030       28.3939419155       13.8950552893
H                29.2827637988       28.5128297927       12.3969209348
N                28.6506529867       23.7314340852       17.5112188889
C                27.9295606122       23.9236711789       18.7605600452
C                28.3249332523       25.2543218629       19.4013764239
O                27.4913311144       26.0975065955       19.7189188825
C                28.2211013136       22.7105329233       19.6522254336
C                27.4826844677       22.6497080325       20.9971775211
C                28.0112102598       23.6554863324       22.0172886233
C                25.9738618235       22.8108772767       20.8236826083
H                28.8867113127       22.7726318098       17.2691098063
H                26.8543820955       23.9873372438       18.5492941521
H                27.9334063650       21.8334049794       19.0668808925
H                29.2979926523       22.6536973859       19.8208094869
H                27.6683469945       21.6474767559       21.3969138505
H                27.5573774626       23.4636468182       22.9860568109
H                29.0903836217       23.5750594193       22.1112467382
H                27.7526826928       24.6697218307       21.7290475800
H                25.4616902402       22.5904593999       21.7570318618
H                25.7248053980       23.8320740962       20.5442316640
H                25.5966174184       22.1341843548       20.0592375979
N                26.6304731745       28.5197529814       18.3762413594
C                25.2038378280       28.7899527688       18.4031485086
C                24.9083240631       29.8693590231       19.4480672830
O                25.4357276004       29.8616120225       20.5555623885
C                24.3889174803       27.5077115496       18.6512438799
C                24.4337849935       27.0458344096       20.1027289278
C                22.9368799903       27.7215245001       18.2290635491
H                26.9735868374       27.7122041588       18.8862168710
H                24.9462678882       29.1782953759       17.4132284948
H                24.8379370332       26.7342558566       18.0177288621
H                23.9190656084       26.0925421320       20.1952737169
H                25.4569883757       26.9306427408       20.4444025565
H                23.9347672801       27.7715326312       20.7391937485
H                22.3763399584       26.7977543518       18.3482702578
H                22.4787846882       28.4746872537       18.8661206109
H                22.8668041793       28.0337664656       17.1894953191
N                16.5987217012       22.5951733082       25.7222132040
C                17.5644034348       21.7421419097       25.0714254010
C                17.0254172264       21.1577671591       23.7731768722
O                17.7053556247       21.1518533638       22.7476154800
H                16.3854278085       22.4098315311       26.6957148824
H                18.4705405068       22.3080048248       24.8273827175
H                17.8134034893       20.9272000769       25.7508959428
N                15.8058371662       20.6319006569       23.8314483714
C                15.1713620051       20.0842413227       22.6456087936
C                15.2089161605       21.1059032546       21.5002123150
O                15.5993940465       20.8078409258       20.3766484926
C                13.7306448321       19.7014618187       22.9555120137
H                15.2945073781       20.6068968706       24.7079514507
H                15.7379196883       19.2084821184       22.3005553075
H                13.2189381494       19.4026118404       22.0448040926
H                13.7085946658       18.8761054086       23.6615720596
H                13.2061374129       20.5506244026       23.3873929988
N                14.7578887491       22.3162823209       21.8267997501
C                14.6535038820       23.3945251887       20.8640814173
C                16.0405202661       23.7270296181       20.2948317376
O                16.2659839111       23.8075163444       19.0908355723
C                14.0608054783       24.6368819859       21.5315127802
C                12.6567385142       24.4183121965       22.0863020008
C                12.1850648022       25.6764596888       22.8666174298
O                12.9684868039       26.1135084733       23.7461577125
O                11.0803934814       26.1620038989       22.5804606221
H                14.4551338964       22.5065519969       22.7732948971
H                14.0234291942       23.0710139021       20.0245727978
H                14.7089604948       24.9366572069       22.3568578174
H                14.0356391814       25.4416139961       20.7935931770
H                11.9388906774       24.2103490446       21.2914291303
H                12.6455928457       23.5883973563       22.7967853848
N                16.9594535982       23.9409347613       21.2317251887
C                18.3404455761       24.2677276490       20.9373577167
C                18.8930119363       23.2847103081       19.9053855553
O                19.5250383630       23.6538427437       18.9206496889
C                19.1317716716       24.2012654534       22.2469690575
C                20.6057035259       24.6047635751       22.1280545619
C                20.7507746258       26.1026890289       21.8791297473
C                21.3358698813       24.2101363052       23.4113968989
H                16.7040057459       23.8503543838       22.2106759121
H                18.3899632971       25.2686231324       20.4907205535
H                18.6338660973       24.8494286291       22.9721878151
H                19.0677174086       23.1747812057       22.6115883791
H                21.0444092212       24.0604842083       21.2854043702
H                21.7991704001       26.3745029293       21.8056805689
H                20.2664336872       26.3913701987       20.9512806199
H                20.3036100443       26.6647037214       22.6949311462
H                22.3756106417       24.5185514323       23.3677674230
H                20.8714298783       24.6909875894       24.2688099171
H                21.3002978101       23.1340657635       23.5602136570
N                18.6663329564       22.0070979488       20.2047723638
C                19.1499700623       20.9081499779       19.3934868852
C                18.6317652127       21.0776003095       17.9694904534
O                19.3836101761       21.1141396378       17.0017958012
C                18.6997655231       19.5621708746       20.0124297478
O                19.3016300226       19.3622368659       21.2685879032
C                19.0957805070       18.4004564982       19.1101969550
H                18.1617300237       21.7704338118       21.0514604192
H                20.2468962147       20.9396878522       19.3547904053
H                17.6049024301       19.5910896304       20.1164856079
H                18.8956102339       19.9564060939       21.9182283922
H                18.7803189128       17.4652079431       19.5621415346
H                18.6245915388       18.5037229778       18.1400976701
H                20.1750508024       18.3770397626       18.9924790253
N                17.3081946595       21.1969088067       17.8657144015
C                16.6708424179       21.3664189405       16.5728972326
C                17.3893136872       22.4508325376       15.7667938621
O                17.6613428115       22.2964229039       14.5809322874
C                15.2009233752       21.7229575267       16.7622981004
H                16.7116764508       21.1581905253       18.6845601548
H                16.7650160338       20.4327904035       16.0007772753
H                14.7076751972       21.8018001090       15.7983515203
H                14.7192504435       20.9408526443       17.3436703782
H                15.1154310235       22.6626492520       17.3024200261
N                17.6223641701       23.5868301639       16.4246169650
C                18.3014329022       24.7036903609       15.7945987482
C                19.6203038887       24.2499435734       15.1500154669
O                19.8358341901       24.4143719194       13.9553050020
C                18.5553071116       25.8142379856       16.8114622610
C                17.2779316598       26.5501302568       17.1893950456
O                16.1837244309       26.2801593260       16.7183922964
N                17.4559125133       27.5497118687       18.0583547426
H                17.3288192651       23.6857072233       17.3904303758
H                17.6838451551       25.0907601287       14.9737561258
H                19.0006262296       25.3833078630       17.7111710509
H                19.2589258691       26.5340678787       16.3891035531
H                16.6612175289       28.0894136212       18.3648252979
H                18.3635603480       27.7787173147       18.4248357732
N                20.5090686096       23.7212144114       15.9912328321
C                21.8314620872       23.3650266777       15.5139010309
C                21.7082211587       22.4030557117       14.3302695834
O                22.3807992267       22.5111293107       13.3063689183
C                22.6961492120       22.7404449232       16.6217993508
C                24.1108779984       22.5176721067       16.0897041007
C                22.7499773910       23.6348067324       17.8591581327
H                20.2564884582       23.5199851925       16.9514146846
H                22.3211559300       24.2720116045       15.1318972217
H                22.2500897985       21.7778767239       16.8921085119
H                24.7129454019       21.9843376568       16.8198833969
H                24.0975878960       21.9397167646       15.1695715658
H                24.5823885290       23.4744876380       15.8766785147
H                23.4450693375       23.2106889800       18.5790354674
H                23.1005917730       24.6273465045       17.5887655305
H                21.7794361875       23.7233125606       18.3389807856
N                20.8402985410       21.4086833446       14.5214452763
C                20.6657201024       20.3836974544       13.5170102136
C                20.2614591634       20.9934315346       12.1787849272
O                20.8730619202       20.7099705240       11.1490306893
C                19.6100331165       19.3620074012       13.9356618262
C                20.0236292188       18.4638124131       15.1087060807
C                18.8281526680       17.5971480101       15.4988761847
C                21.2117097666       17.5716060602       14.7591683127
H                20.2903952252       21.3483517015       15.3723709664
H                21.6344947611       19.8962879558       13.3427255340
H                18.7061109988       19.9104291457       14.2046869100
H                19.3883332983       18.7341425237       13.0706793619
H                20.2886186657       19.1003444935       15.9574060814
H                19.0860451489       16.9394725619       16.3239046845
H                17.9860188413       18.2164894140       15.7973421895
H                18.5227239265       16.9820065525       14.6571497521
H                21.4620546505       16.9338456922       15.6027278708
H                20.9732518148       16.9333632098       13.9112296450
H                22.0941129024       18.1560022538       14.5136720149
N                19.1762589790       21.7623687154       12.1627204230
C                18.7104767018       22.2455477837       10.8811841431
C                19.6908042653       23.2359672754       10.2325671620
O                19.7151167082       23.3593516379        9.0159673355
C                17.2882851147       22.7981332297       10.9406922592
C                17.1496077391       24.1153517532       11.6986871982
C                15.6915095129       24.5903201445       11.6116061358
N                15.4588336743       25.8287506574       12.3278746882
C                15.2976251622       25.9305182387       13.6440778795
N                15.2125846774       24.8510951347       14.4221028224
N                15.1328252073       27.1267166683       14.1997670596
H                18.6931886745       22.0320323059       13.0146182193
H                18.7098818633       21.3865816774       10.1940039898
H                16.9636981861       22.9415132581        9.9093381601
H                16.6565815269       22.0393260951       11.4043448444
H                17.4570100525       23.9758009907       12.7353547447
H                17.8067438428       24.8650680554       11.2556837093
H                15.4393459737       24.7656147830       10.5658632441
H                15.0200408366       23.8179330272       11.9917151272
H                15.5775094734       26.6818431172       11.8007048910
H                15.4802739062       23.9450183210       14.0741784369
H                15.2172224733       24.9970175171       15.4250516530
H                15.1498902164       27.9710993174       13.6532268114
H                15.1038230001       27.1895129134       15.2089190742
N                20.4877324549       23.9117721966       11.0665840133
C                21.4768630957       24.8578160198       10.5856457460
C                22.5971281169       24.1842901804        9.7875169157
O                22.9115015189       24.5633548874        8.6698639208
C                22.1027153722       25.6028804786       11.7552617383
C                23.2697401900       26.5076243081       11.2246088068
O                22.9401154059       27.5805205733       10.6890001943
O                24.4253531679       26.0806992602       11.3991490470
H                20.3654881895       23.8510712227       12.0711364566
H                21.0041018380       25.5686442906        9.8928192119
H                21.3496546274       26.2292105882       12.2337625550
H                22.5042121580       24.8889539619       12.4756585937
N                23.2027400825       23.1629310649       10.4232079314
C                24.4351906837       22.5953729115        9.9246046453
C                24.3664378468       21.0827100454        9.7038317524
O                25.1026588832       20.5176922535        8.9061505550
C                25.6231429941       22.9159811094       10.8558394421
C                26.9498278584       22.5960879722       10.1675102334
S                28.1527364421       21.7161097920       11.2151606870
C                27.2631499272       20.1829832031       11.5316366285
H                22.9574276142       23.0185793606       11.3946648770
H                24.6082658344       23.0662527889        8.9490712309
H                25.5551701178       23.9752153372       11.1162834316
H                25.4970907592       22.3398808595       11.7765133439
H                26.7759726008       21.9493255256        9.3079268299
H                27.4497499017       23.5049421119        9.8441968129
H                27.9473939405       19.4564045719       11.9549201987
H                26.4535042899       20.3558289481       12.2367566930
H                26.8550144197       19.8000441254       10.6007899984
N                23.5130656263       20.4264958166       10.5028359484
C                23.2795425379       19.0063849794       10.3689514445
C                22.6145009849       18.6528297316        9.0363413605
O                22.9706423377       17.6876138400        8.3724377612
H                22.8404019010       20.9635142385       11.0327993650
H                24.2296632282       18.4663133935       10.4411039697
H                22.6303114764       18.6837448966       11.1834928340
N                21.5857987925       19.4456863438        8.7122797404
C                20.9725827769       19.4798145904        7.3947883801
C                20.4026627715       18.1124876017        6.9812000179
O                20.4606222057       17.7008037410        5.8369560213
C                21.9579850986       19.9659695228        6.3275678159
C                22.4560026834       21.3982928360        6.5373836202
C                23.6136254021       21.6717956331        5.5794983901
C                21.3551185356       22.4334748286        6.3300997368
H                21.3535882840       20.1971897524        9.3508426799
H                20.1268090349       20.1723586955        7.4534402948
H                22.8106943160       19.2832477067        6.3319602984
H                21.4709709270       19.8821661011        5.3555526824
H                22.8330316144       21.4994359632        7.5624752203
H                23.9797159715       22.6863247510        5.7193095130
H                24.4336875963       20.9813210936        5.7645942126
H                23.2847683515       21.5581491713        4.5493176211
H                21.7681194496       23.4322800509        6.4554194125
H                20.9327975953       22.3491319655        5.3319172484
H                20.5606224653       22.3346118421        7.0641962687
N                19.7569703168       17.4521209912        7.9619191430
C                19.2252555366       16.1235539906        7.7645919029
C                17.7441369775       16.0828174904        8.1406394005
O                17.3313920008       16.5653921203        9.1858691790
C                19.9488670612       15.1005715915        8.6550133573
C                21.3982915977       14.8733547025        8.2181905368
C                22.2015246430       14.3715790254        9.4091787216
O                21.9550023775       13.3167270775        9.9760323936
N                23.1701178713       15.2098863743        9.7997139376
H                19.7863954360       17.8064500603        8.9060842972
H                19.3740459970       15.8863879991        6.7074982720
H                19.9357416554       15.4760810742        9.6808764872
H                19.4152859264       14.1502701705        8.6385524275
H                21.4377382025       14.1256317761        7.4262804346
H                21.8348115528       15.8010001263        7.8522588219
H                23.3236929116       16.0907030551        9.3188293350
H                23.7335423938       14.9980474850       10.6078905686
N                16.1138282151       13.9129647691        9.4395422492
C                15.8908919806       13.3510680532       10.7557984325
C                15.6213308189       14.4320813115       11.8066251429
O                14.9733781805       14.1418263322       12.8085102347
C                17.0383638984       12.4311931682       11.1900766457
C                18.4016273470       13.1247331431       11.2525427781
S                19.2312589691       12.9702339229       12.8707113712
C                18.2063820000       14.1300529426       13.8252694101
H                16.8698186102       13.5408643339        8.8855841320
H                14.9729828554       12.7447273072       10.7336025037
H                16.7768348636       12.0329288107       12.1723268367
H                17.0822389771       11.5843299289       10.5043148787
H                19.1130121345       12.6851713584       10.5550718642
H                18.3176511846       14.1915272869       11.0509860863
H                18.6411556846       14.1747253868       14.8150597641
H                18.2585674953       15.1035693206       13.3488945391
H                17.1824828044       13.7753929047       13.8810595680
N                16.1096432158       15.6568907545       11.6203647246
C                15.7836905345       16.7071795216       12.5733059263
C                14.2776014926       16.7471249034       12.8545265303
O                13.8538178224       16.9055125017       13.9919700664
C                16.2475817452       18.0573355100       12.0447921947
H                16.5732498547       15.9360488683       10.7591761155
H                16.2659981317       16.4783363892       13.5328496664
H                15.9887875071       18.8346750001       12.7565983376
H                17.3247270150       18.0468445507       11.9040862445
H                15.7719748926       18.2651050097       11.0905226227
N                12.9672496870       13.9832334593       14.8773705328
C                13.2279794129       14.2105986014       16.2836369857
C                12.1379155075       15.1305480114       16.8274504542
O                11.4607526743       14.8462341481       17.8158057251
C                14.6114185932       14.8276194017       16.4857393892
C                14.8157974361       15.3395658586       17.9168649375
C                14.7048203768       14.2072996650       18.9337592880
C                16.1567337285       16.0561828936       18.0433563557
H                13.7183717631       14.1326713941       14.2140594439
H                13.1445454597       13.2546936601       16.8154194722
H                15.3595530178       14.0707984504       16.2444325821
H                14.7187660705       15.6561500421       15.7836729910
H                14.0256151155       16.0658564765       18.1283316024
H                14.8998741436       14.5771763554       19.9363582873
H                13.7040124148       13.7827153611       18.9356911274
H                15.4126541019       13.4097261503       18.7188194300
H                16.2520423067       16.4925402564       19.0332797402
H                16.9773856758       15.3612531360       17.8922396484
H                16.2318680277       16.8450186364       17.3016444189
N                12.0071756871       16.2799977851       16.1696535381
C                11.0284777716       17.2680902644       16.5743309880
C                 9.6994695864       16.5954547053       16.9093287486
O                 9.1012433108       16.8510163483       17.9572426872
C                10.8080625972       18.3073306634       15.4763535443
C                12.0100647444       19.2421724417       15.3205549665
C                11.7757145058       20.1670155917       14.1369930398
O                11.5869660565       19.7424732255       13.0064984089
N                11.8276311760       21.4804769382       14.4103167659
H                12.5611652424       16.4560051968       15.3350815654
H                11.3699255567       17.7618161923       17.4959889387
H                10.6179608051       17.7875771655       14.5362726426
H                 9.9161722755       18.8829858331       15.7301260005
H                12.1684799454       19.8002795212       16.2416096801
H                12.8949877963       18.6431486192       15.0989119678
H                11.8493788320       21.8105413466       15.3608260903
H                11.5892299858       22.1301433796       13.6761904958
H                15.5894286373       12.5595978123       21.6525791611
H                18.8625693127       11.4595227259       22.0432469564
H                17.9792010205       10.4219911415       17.5693799152
H                21.2472007359       11.3200760314       17.0644607360
H                29.6840000583       19.3510647055       13.4081885474
H                30.0826763017       19.3873843626       16.7263883898
H                31.4130384152       23.6577832085       15.3575119994
H                29.2883377129       25.4594992600       19.5738701368
H                26.8953084059       28.3880043504       17.5262386545
H                24.2690390432       30.6085908524       19.2362868167
H                16.8888821370       23.4468937608       25.7027403461
H                17.0835826486       15.6531925677        7.5249362217
H                15.3774486572       13.7978255216        8.9350741130
H                13.6257639200       16.6430460929       12.1033438759
H                12.7191231601       13.1271873775       14.7523972056
H                 9.2993201174       15.9348387264       16.2741382805
