205
Properties=species:S:1:pos:R:3 pbc="F F F"
N      31.67800000      18.95600000      39.03100000 
C      32.53700000      17.95700000      38.76200000 
C      32.08700000      16.65300000      38.64800000 
O      32.50500000      15.71200000      37.82500000 
C      33.72400000      18.25800000      40.01300000 
C      34.78400000      16.77900000      40.03600000 
C      34.50800000      16.24700000      40.26900000 
C      35.72700000      17.44000000      39.37900000 
C      35.38800000      14.52600000      40.55200000 
C      36.94500000      16.41500000      39.13000000 
C      37.01300000      15.34600000      39.44900000 
H      31.63300000      19.53500000      39.64400000 
H      33.23600000      18.07000000      38.01800000 
H      33.94700000      19.08300000      40.08400000 
H      32.89900000      17.91300000      41.02500000 
H      33.82300000      15.56700000      40.91500000 
H      35.95600000      18.38800000      38.88200000 
H      35.51900000      14.19400000      40.54900000 
H      37.79500000      16.82400000      38.58600000 
H      37.41900000      14.65800000      39.52000000 
N      35.10100000      11.80800000      37.96300000 
C      35.11700000      10.88300000      38.58700000 
C      35.14600000      11.19700000      40.47200000 
O      34.49100000      11.55900000      40.60600000 
H      36.07900000      12.61400000      37.87400000 
H      34.73600000      10.25000000      38.57600000 
H      36.23100000      10.33200000      38.58400000 
N      36.05800000      10.44400000      41.11400000 
C      36.04900000      10.51100000      42.42600000 
C      37.57600000      10.40400000      43.01200000 
O      38.42600000      10.78800000      42.51300000 
C      34.81300000       9.45700000      43.00300000 
O      35.64500000       8.28200000      42.84600000 
H      36.93500000       9.96400000      40.54600000 
H      35.78300000      11.57300000      42.70100000 
H      34.89600000       9.78800000      43.88100000 
H      34.27800000       9.67700000      42.49300000 
H      34.89000000       7.61700000      42.48700000 
N      37.76300000       9.60200000      44.29900000 
C      38.65200000       9.47300000      44.55400000 
C      39.66000000       9.17900000      44.19600000 
O      41.08000000       9.24000000      44.18900000 
C      38.43600000       8.76900000      46.11300000 
C      37.69800000       9.15600000      47.10400000 
C      37.09800000       7.89700000      48.04300000 
C      38.21900000      10.43800000      47.86800000 
H      36.73100000       9.10400000      44.52800000 
H      39.15700000      10.49100000      45.19500000 
H      38.29500000       7.61300000      45.69300000 
H      39.55500000       8.40200000      46.53700000 
H      36.66800000       9.39100000      46.55900000 
H      36.71100000       8.38400000      48.77800000 
H      36.93300000       7.31400000      47.72800000 
H      38.38000000       7.77700000      48.67700000 
H      37.43900000      10.75000000      48.54200000 
H      39.08500000      10.08900000      48.27000000 
H      38.29100000      11.24600000      47.05300000 
N      39.44000000       7.93900000      43.00000000 
C      40.39400000       7.39000000      42.31800000 
C      40.57900000       8.24600000      41.41800000 
O      42.23900000       7.80500000      40.42900000 
C      39.95700000       5.95800000      41.91100000 
C      39.59700000       5.12800000      43.06600000 
C      37.91700000       5.35200000      43.38000000 
N      37.99700000       4.25200000      44.42400000 
C      36.59800000       4.68700000      45.00100000 
N      35.64300000       5.39400000      45.25000000 
N      36.48300000       3.27900000      46.38300000 
H      38.49400000       7.93000000      43.00300000 
H      41.38700000       7.10000000      42.98000000 
H      39.10100000       6.19800000      41.19700000 
H      40.69300000       5.51500000      41.25300000 
H      39.73200000       4.01100000      42.68200000 
H      40.15200000       5.38300000      43.87900000 
H      37.86500000       6.18100000      43.70100000 
H      37.50300000       5.06400000      42.60800000 
H      38.16900000       3.68700000      44.62900000 
H      35.96100000       6.26900000      44.26500000 
H      35.05500000       5.56200000      45.54400000 
H      36.84700000       3.00700000      46.31000000 
H      35.50900000       3.66800000      46.81200000 
N      40.35300000       9.22700000      40.74800000 
C      40.65700000      10.08400000      39.71900000 
C      41.62800000      11.34100000      40.63200000 
O      42.44000000      11.60300000      40.04600000 
C      39.44300000      10.83800000      39.47200000 
O      38.30400000       9.89600000      38.98300000 
H      39.35300000       9.54000000      41.54000000 
H      41.02900000       9.88100000      39.24100000 
H      38.78600000      11.67800000      40.32500000 
H      39.62500000      11.66400000      38.52900000 
H      38.62800000       9.49200000      38.28500000 
N      41.36400000      11.63100000      41.69100000 
C      41.84700000      12.65700000      42.40500000 
C      43.49800000      11.73200000      42.62500000 
O      44.43800000      12.30400000      42.56100000 
C      41.57500000      12.57400000      43.88100000 
C      40.20300000      13.76900000      43.65500000 
C      42.37600000      13.46200000      44.81300000 
C      39.25500000      13.59900000      45.00700000 
H      40.32500000      11.30300000      42.18300000 
H      42.33300000      13.35800000      42.09800000 
H      41.05800000      11.79700000      44.35200000 
H      40.55300000      14.64800000      43.41300000 
H      39.57400000      13.25900000      42.79900000 
H      41.93600000      13.68300000      45.91400000 
H      43.28900000      12.69300000      45.05800000 
H      42.80900000      14.38900000      44.37000000 
H      38.41400000      14.40400000      44.65900000 
H      39.06900000      12.91100000      45.18200000 
H      39.88400000      14.29100000      45.80800000 
N      43.51800000      10.57800000      43.09300000 
C      44.53100000       9.78600000      43.23900000 
C      45.46800000       9.84600000      41.80800000 
O      46.50700000       9.82700000      41.99500000 
C      44.17500000       8.27100000      43.72700000 
C      43.55700000       8.35100000      45.09600000 
C      42.83300000       7.27100000      45.40500000 
O      42.45200000       6.38600000      44.66300000 
N      42.27000000       6.95400000      46.77500000 
H      42.35800000      10.04100000      43.37200000 
H      45.21000000      10.20400000      43.91900000 
H      43.51300000       7.96700000      43.12600000 
H      45.06800000       7.68400000      43.68500000 
H      44.55900000       8.45000000      45.93000000 
H      43.10000000       9.21600000      45.29800000 
H      42.75200000       7.91500000      47.50500000 
H      41.81500000       6.36900000      46.99700000 
N      44.57600000       9.40400000      41.05700000 
C      45.44700000       9.40300000      39.46800000 
C      46.22000000      10.76700000      39.11500000 
O      46.97300000      10.79400000      38.65900000 
C      44.28800000       9.04300000      38.17600000 
C      44.55000000       7.77100000      38.07000000 
C      43.48100000       7.04200000      36.86000000 
N      42.12400000       7.15400000      37.87600000 
C      41.05400000       6.51300000      36.95600000 
N      40.88900000       6.06100000      36.03800000 
N      39.88200000       6.68300000      38.24200000 
H      43.85200000       9.50300000      40.80700000 
H      46.14900000       8.62300000      39.59500000 
H      43.46200000       9.24800000      38.81300000 
H      44.56900000       9.56300000      37.77900000 
H      45.47600000       7.40800000      37.64200000 
H      44.46200000       7.01200000      39.02000000 
H      43.43300000       7.81700000      36.32800000 
H      43.69500000       6.27600000      36.74300000 
H      42.17300000       7.34300000      38.75400000 
H      41.92900000       6.21100000      35.39700000 
H      40.31600000       5.77600000      35.68500000 
H      39.83600000       6.84000000      38.74900000 
H      39.04100000       6.09600000      37.49300000 
N      45.51800000      11.69900000      39.61200000 
C      45.85000000      13.06400000      39.88600000 
C      47.51300000      13.51900000      40.40000000 
O      47.75800000      14.24600000      40.24500000 
C      45.15500000      14.02700000      39.70000000 
O      45.47700000      15.29200000      39.40800000 
H      44.82100000      11.72300000      40.34700000 
H      46.53100000      13.10300000      38.59800000 
H      44.28400000      13.65200000      38.97300000 
H      44.90800000      14.34700000      40.75300000 
H      46.81100000      15.27200000      39.50100000 
N      47.91800000      12.24200000      41.03600000 
C      48.97700000      12.64300000      41.75800000 
C      50.45100000      12.93500000      40.77100000 
O      51.23200000      13.31100000      41.14200000 
C      49.60700000      11.12400000      42.54800000 
C      49.92300000      11.60700000      44.11000000 
C      49.68200000      10.38000000      44.88900000 
C      51.11400000      12.33500000      44.36800000 
H      47.60000000      11.61200000      41.30600000 
H      49.12600000      13.46600000      42.45200000 
H      48.56200000      10.73000000      42.69400000 
H      50.06900000      10.78000000      42.37000000 
H      49.04900000      12.31000000      44.45500000 
H      50.16000000      10.65500000      46.02500000 
H      48.80800000       9.90100000      45.07400000 
H      50.54100000       9.65600000      44.61500000 
H      51.42800000      12.42700000      45.16300000 
H      52.01600000      11.34600000      43.74400000 
H      51.26800000      13.13300000      43.57700000 
N      50.47300000      12.13400000      39.89100000 
C      51.13700000      12.46100000      38.58700000 
C      51.66900000      13.44000000      38.13900000 
O      50.06800000      14.17900000      37.95200000 
C      51.12300000      11.13400000      37.79700000 
C      51.44900000       9.70900000      38.47700000 
C      50.31900000       9.26400000      38.97200000 
C      51.99200000       8.77100000      37.00800000 
O      52.56500000      14.00400000      37.82000000 
H      49.22100000      11.63200000      39.47200000 
H      52.35100000      12.03300000      39.40300000 
H      50.44800000      11.11000000      37.35600000 
H      51.97600000      11.37600000      36.94800000 
H      52.27800000       9.76600000      38.90800000 
H      50.53700000       8.02900000      39.12300000 
H      50.10300000       9.54900000      39.66900000 
H      49.52900000       9.06300000      38.22500000 
H      52.16700000       7.79200000      37.36300000 
H      51.08800000       8.78000000      36.18800000 
H      53.00300000       9.31200000      36.55400000 
H      31.66739469      19.53645351      38.34327822 
H      31.35113975      16.32443995      39.24007938 
H      34.96224239      11.58697973      37.10166594 
