 142 
 
N                55.0809252169       51.3885285150       48.0762151676
C                55.6403715744       52.1921226200       47.0146653170
C                56.2145692785       53.4430593358       47.6809091121
O                55.6667393268       53.9609796753       48.6433067474
C                54.5667674650       52.6462699236       45.9904180684
C                53.8821909125       51.4328370724       45.3476150594
C                55.1939439697       53.5395883973       44.9201749726
C                52.5817610005       51.8118839527       44.6467148005
H                54.6420235408       51.9325756685       48.8082013092
H                56.4060281025       51.5952975569       46.5100315951
H                53.8205121614       53.2262991481       46.5465179897
H                54.5695811556       50.9753170464       44.6333517369
H                53.6573349396       50.6967322627       46.1212193173
H                54.4567447042       53.7750202827       44.1579848404
H                55.5352578812       54.4826414797       45.3405750017
H                56.0313672100       53.0354481101       44.4426691816
H                52.0885870410       50.9257352943       44.2571943684
H                51.9119429281       52.3119036816       45.3450284730
H                52.7615110960       52.4899335872       43.8165780306
N                57.1210088792       64.6256738468       46.3495730067
C                55.7046805513       64.3476011688       46.1772330299
C                55.2555107373       63.4022190437       47.3128761604
O                56.0836406685       62.7278127047       47.9139736653
C                55.5265794312       63.7669213267       44.7649466196
C                56.0489728510       64.7339554202       43.6845034896
C                56.1931513853       64.0271845042       42.3364668981
C                55.1464878709       65.9575017716       43.5287032181
H                57.7481252444       63.9058879804       46.0221140353
H                55.1764830294       65.2997303376       46.2914609965
H                56.0758087233       62.8236047310       44.7129328462
H                54.4802748211       63.5251684112       44.5820119823
H                57.0432971243       65.0801733297       43.9880908218
H                56.5584176645       64.7310905241       41.5921469943
H                56.9013139964       63.2046076884       42.3959118035
H                55.2382345983       63.6344898417       41.9963543767
H                55.5399894829       66.6026946944       42.7471020399
H                54.1381608788       65.6603474773       43.2503416132
H                55.0964906269       66.5402787854       44.4449813273
N                53.9610010073       63.4084727860       47.6641258220
C                53.4970438872       62.5450777413       48.7436429638
C                53.8313060431       61.0663175113       48.5008335439
O                54.1121516261       60.6127139758       47.3994671218
C                51.9749588127       62.7320984668       48.7664432424
C                51.6695871641       63.1819701381       47.3385192513
C                52.8507902533       64.1000596620       47.0312550975
H                53.9820802905       62.8366020777       49.6852044133
H                51.4705662383       61.8011924548       49.0262994631
H                51.7034385536       63.4968783576       49.4933036710
H                51.6846592245       62.3015273674       46.6908599933
H                50.7060494419       63.6772631303       47.2531949782
H                53.0201925394       64.2409609378       45.9653601125
H                52.7103932648       65.0752915927       47.5179192450
N                53.7385788610       60.3424333315       49.6237056614
C                54.1314889073       58.9598045453       49.7425580304
C                53.0113161766       58.1038316431       50.3382018862
O                52.4732089468       58.3861818343       51.3989612346
C                55.3326819517       58.8806287701       50.6947254674
C                55.0428258028       59.4927221941       52.1102445932
O                54.5713167677       60.6465251748       52.1551839777
O                55.3750724021       58.7952588830       53.0857700143
H                53.6941302428       60.7921327584       50.5397275067
H                54.3840689801       58.5976307555       48.7363718421
H                55.6462131168       57.8446809372       50.8247589438
H                56.1462943565       59.4630660447       50.2567770689
N                52.7650828945       56.9478137298       49.6930984862
C                51.6621152968       56.0815491631       50.0677316739
C                51.8663084566       54.6945761763       49.4473218460
O                52.5985432023       54.5022935382       48.4881155893
C                50.3163640771       56.6976873102       49.6468736143
C                50.2959301970       57.0792786306       48.1716678770
C                50.8017769247       58.5371863373       47.8889184940
O                50.7221403887       59.3724662163       48.8082742175
O                51.2022174265       58.7445995453       46.7239559408
H                53.1617154915       56.7791474002       48.7801298265
H                51.6808666071       55.9929004739       51.1621156040
H                49.5124432709       55.9979496942       49.8845259039
H                50.1772043449       57.6133764933       50.2311147384
H                50.9019884527       56.4065339795       47.5622214382
H                49.2758357101       57.0499766232       47.7826272040
N                51.1549951490       53.7286514009       50.0456461016
C                51.3209992337       52.3066309843       49.8260089605
C                49.9772029533       51.6621207691       49.4645551146
O                48.9221975519       52.2537981444       49.6498803922
C                51.8767143862       51.6665105293       51.1198002832
C                50.9124077721       51.8207707754       52.2639732343
C                50.9087070853       52.9845773163       53.0253245572
C                49.9994852866       50.8198116887       52.5677298588
C                49.9984224216       53.1537069623       54.0543425321
C                49.0932523792       50.9880144392       53.5996787281
C                49.0850680695       52.1552105438       54.3438731880
H                50.5200981958       53.9700555031       50.7944628635
H                52.0283609504       52.1883876528       48.9996745923
H                52.0678769345       50.6086453863       50.9390681367
H                52.8107707252       52.1711917739       51.3723199385
H                51.6442347296       53.7514515961       52.8258834465
H                50.0036522556       49.9041004617       51.9935572215
H                49.9992819327       54.0730481879       54.6222044344
H                48.3884494767       50.2030512461       53.8262760901
H                48.3853208147       52.2826601522       55.1564383873
N                45.3199779122       55.9864715978       52.8631494904
C                46.2447438080       57.1026800096       52.9100659953
C                46.8795128560       57.1472267343       54.3031845780
O                48.0735329518       57.0021175528       54.4897399108
C                45.5551576545       58.4142805821       52.5207745995
C                46.5623003366       59.5295850720       52.4428290548
C                47.5358265846       59.5249155143       51.4482683779
C                46.5623445536       60.5604799376       53.3689932100
C                48.4820526617       60.5251037366       51.3676929683
C                47.4967033416       61.5772767229       53.2964072155
C                48.4570009101       61.5682163948       52.2920500025
O                49.3827844093       62.5588260021       52.1831041071
H                44.3348153698       56.1657204533       52.9849253669
H                47.0584843183       56.8784844718       52.2089261070
H                45.0932256595       58.2734757182       51.5420526622
H                44.7690886326       58.6635796690       53.2367072339
H                47.5620186690       58.7303567572       50.7146133371
H                45.8182456155       60.5859736202       54.1505429775
H                49.2347845615       60.4998299601       50.5910069821
H                47.4763147319       62.3865154248       54.0130722568
H                49.2266472541       63.2297529086       52.8638913658
N                54.2583386590       55.1146791935       56.6747277697
C                54.8044099775       53.9908246504       55.9258226648
C                55.7280055798       53.1065610469       56.8248054854
O                56.9457904903       53.1329931895       56.7405083077
C                55.5261102579       54.5262438814       54.6820215356
C                54.5189190100       54.8172006240       53.5726779427
O                53.9544753539       53.9109817559       52.9776709220
N                54.2446295139       56.1105529112       53.3420330102
H                54.5960394416       56.0276402392       56.4049881454
H                53.9665607842       53.3565421253       55.6083475266
H                56.1051482037       55.4168667016       54.9226696379
H                56.2070106477       53.7525600686       54.3275132007
H                53.5919036109       56.3468268203       52.6081004711
H                54.8171380538       56.8993676414       53.6199547854
H                54.4539904128       50.8384157391       47.7380899168
H                57.0556977039       53.8548958478       47.3303471925
H                57.3371530116       65.3743357299       45.8992541209
H                49.9532538267       50.7433904841       49.0703963867
H                45.3793428630       55.5806188702       52.0620506413
H                46.3072402635       57.3009407199       55.1087130321
H                53.3643474012       55.1372423310       56.5733841171
H                55.3253214139       52.4892678003       57.5006712341
