465
Properties=species:S:1:pos:R:3 pbc="F F F"
N      21.50700000      11.29400000      17.41000000 
C      22.93000000      11.17100000      17.17500000 
C      23.27400000       9.81200000      16.55800000 
O      24.46700000       9.49500000      16.40800000 
C      23.81700000      11.40500000      18.41400000 
C      23.91600000      12.82800000      19.01300000 
C      24.32400000      13.90300000      17.99800000 
C      22.67600000      13.27300000      19.79300000 
H      21.07500000      10.74300000      18.12500000 
H      23.18600000      11.89700000      16.41900000 
H      23.50800000      10.72000000      19.19700000 
H      24.81400000      11.11400000      18.11700000 
H      24.72800000      12.75100000      19.73500000 
H      24.51700000      14.84200000      18.50700000 
H      25.22600000      13.62700000      17.46200000 
H      23.53800000      14.08300000      17.27400000 
H      22.89900000      14.16900000      20.36400000 
H      21.84800000      13.49700000      19.13600000 
H      22.35200000      12.50700000      20.48500000 
N      23.22600000       9.92300000      11.94600000 
C      24.32900000      10.64200000      11.35000000 
C      25.57700000       9.76100000      11.29700000 
O      25.62900000       8.66100000      11.86100000 
C      24.50700000      12.00200000      12.06400000 
C      24.69400000      11.99800000      13.59400000 
C      26.11100000      11.61500000      14.03800000 
C      24.31800000      13.38200000      14.14100000 
H      23.13200000       9.96400000      12.93200000 
H      24.06800000      10.85500000      10.32300000 
H      25.32700000      12.54400000      11.60600000 
H      23.60500000      12.55500000      11.83400000 
H      24.00800000      11.28500000      14.03700000 
H      26.17900000      11.64000000      15.12000000 
H      26.38800000      10.61900000      13.72100000 
H      26.83900000      12.31000000      13.63900000 
H      24.46600000      13.41500000      15.21100000 
H      24.93800000      14.14800000      13.70000000 
H      23.27800000      13.60800000      13.94200000 
N      26.60100000      10.22600000      10.56000000 
C      27.79900000       9.46400000      10.33600000 
C      28.89400000       9.84200000      11.32800000 
O      28.84400000      10.86400000      12.02200000 
C      28.30900000       9.66400000       8.90300000 
O      28.74600000      11.04200000       8.84800000 
C      27.26100000       9.37200000       7.84100000 
H      26.55200000      11.13300000      10.15600000 
H      27.56400000       8.41800000      10.47000000 
H      29.16600000       9.02300000       8.75100000 
H      28.98100000      11.33200000       7.97000000 
H      27.70000000       9.47900000       6.85500000 
H      26.89500000       8.35700000       7.93800000 
H      26.42400000      10.05200000       7.91900000 
N      29.96000000       9.02200000      11.37700000 
C      31.09300000       9.30500000      12.24300000 
C      31.82900000      10.57000000      11.82200000 
O      32.49400000      11.19900000      12.66200000 
C      32.04400000       8.10600000      12.27200000 
H      29.95500000       8.16600000      10.87200000 
H      30.73500000       9.50300000      13.24400000 
H      32.88100000       8.31400000      12.92500000 
H      31.52200000       7.23800000      12.65300000 
H      32.42000000       7.88200000      11.28200000 
N      31.74700000      10.95200000      10.54300000 
C      32.35800000      12.17500000      10.04200000 
C      31.57200000      13.40200000      10.48700000 
O      32.17300000      14.43300000      10.84400000 
C      32.46700000      12.07900000       8.51000000 
C      33.11000000      13.27400000       7.80900000 
C      34.61400000      13.43500000       8.00500000 
O      35.16400000      12.89100000       9.00800000 
O      35.21700000      14.13600000       7.14000000 
H      31.22300000      10.39600000       9.90800000 
H      33.34300000      12.28300000      10.45800000 
H      33.03900000      11.18500000       8.29300000 
H      31.47200000      11.92700000       8.10300000 
H      32.93200000      13.19000000       6.74500000 
H      32.64000000      14.20500000       8.11500000 
N      30.23500000      13.34600000      10.47000000 
C      29.41300000      14.48800000      10.85300000 
C      29.63800000      14.85300000      12.31300000 
O      29.67300000      16.04900000      12.65600000 
C      27.93700000      14.17400000      10.53500000 
C      26.99400000      15.37500000      10.52800000 
C      26.47100000      15.86300000      11.87200000 
O      26.80200000      15.24300000      12.92100000 
O      25.69300000      16.86500000      11.83900000 
H      29.77400000      12.51100000      10.17300000 
H      29.72400000      15.35400000      10.28900000 
H      27.93200000      13.74100000       9.54100000 
H      27.57700000      13.41500000      11.21300000 
H      27.44600000      16.21900000      10.01800000 
H      26.11700000      15.11400000       9.94400000 
N      29.84100000      13.86500000      13.18700000 
C      29.97400000      14.08900000      14.62500000 
C      31.04500000      15.13100000      14.92600000 
O      30.84500000      15.99300000      15.80200000 
C      30.23300000      12.70800000      15.26900000 
C      30.28200000      12.58600000      16.80600000 
C      31.61000000      13.05200000      17.42200000 
C      29.07300000      13.22700000      17.50100000 
H      29.77200000      12.92200000      12.86800000 
H      29.05600000      14.51200000      15.00500000 
H      29.42300000      12.07500000      14.92200000 
H      31.14700000      12.30200000      14.85100000 
H      30.22000000      11.51600000      16.98900000 
H      31.66000000      12.75600000      18.46500000 
H      32.45500000      12.60200000      16.91300000 
H      31.72400000      14.12800000      17.37400000 
H      29.06600000      12.97200000      18.55500000 
H      29.09100000      14.30800000      17.42300000 
H      28.14200000      12.87400000      17.06800000 
N      32.19400000      15.10100000      14.23800000 
C      33.24900000      16.07900000      14.46600000 
C      32.79400000      17.49400000      14.12700000 
O      33.16800000      18.45800000      14.81900000 
C      34.50000000      15.68300000      13.65600000 
C      35.55600000      16.80000000      13.56800000 
C      36.99300000      16.27900000      13.43000000 
C      37.55400000      15.89800000      14.79400000 
N      38.97800000      15.41800000      14.68000000 
H      32.31600000      14.42600000      13.51500000 
H      33.49700000      16.10300000      15.51600000 
H      34.91200000      14.79900000      14.12900000 
H      34.19900000      15.39500000      12.65500000 
H      35.32700000      17.43400000      12.71900000 
H      35.50400000      17.43800000      14.44300000 
H      37.02700000      15.42700000      12.75800000 
H      37.61500000      17.05400000      12.99600000 
H      37.57000000      16.75000000      15.45700000 
H      36.99700000      15.10100000      15.26000000 
H      39.35600000      15.19000000      15.58600000 
H      39.04400000      14.59400000      14.10400000 
H      39.57200000      16.12600000      14.27500000 
N      32.01600000      17.65800000      13.05600000 
C      31.52700000      18.96400000      12.65600000 
C      30.58100000      19.53600000      13.70700000 
O      30.61700000      20.74900000      13.99200000 
C      30.82100000      18.86300000      11.29200000 
C      31.74100000      18.48000000      10.12400000 
C      32.68400000      19.58500000       9.62800000 
C      32.00700000      20.85200000       9.11100000 
N      31.05300000      20.55700000       7.97600000 
H      31.62300000      16.85900000      12.61000000 
H      32.35400000      19.65600000      12.60700000 
H      30.03600000      18.12500000      11.37300000 
H      30.34100000      19.81100000      11.09100000 
H      32.34400000      17.62000000      10.39400000 
H      31.11200000      18.14400000       9.30400000 
H      33.35500000      19.89200000      10.42200000 
H      33.31000000      19.17800000       8.83900000 
H      31.43100000      21.35500000       9.86900000 
H      32.73900000      21.54000000       8.72000000 
H      30.71200000      21.41200000       7.56400000 
H      31.49900000      20.02500000       7.24500000 
H      30.24700000      20.03600000       8.28600000 
N      29.71700000      18.70200000      14.29600000 
C      28.75800000      19.16400000      15.29100000 
C      29.46600000      19.79000000      16.48500000 
O      29.00200000      20.80500000      17.03200000 
C      27.85700000      17.97900000      15.72000000 
C      26.61700000      18.39900000      16.47900000 
C      25.46100000      18.74800000      15.78100000 
C      26.59300000      18.43600000      17.87100000 
C      24.31400000      19.13500000      16.45800000 
C      25.44600000      18.82900000      18.55100000 
C      24.30200000      19.17900000      17.84600000 
H      29.69900000      17.74200000      14.01800000 
H      28.14500000      19.94800000      14.86800000 
H      27.55700000      17.46300000      14.81700000 
H      28.44400000      17.28300000      16.30400000 
H      25.45800000      18.70300000      14.70700000 
H      27.46700000      18.15500000      18.42700000 
H      23.43600000      19.40600000      15.90600000 
H      25.44300000      18.85900000      19.62300000 
H      23.41500000      19.48100000      18.37000000 
N      30.58500000      19.20000000      16.92300000 
C      31.32400000      19.70500000      18.07000000 
C      31.84700000      21.11600000      17.84100000 
O      31.87700000      21.92100000      18.78700000 
C      32.51000000      18.77900000      18.39800000 
C      32.12000000      17.40100000      18.95000000 
C      31.36700000      17.46900000      20.28600000 
C      31.49000000      16.20800000      21.13000000 
N      30.76900000      15.01900000      20.55100000 
H      30.91000000      18.37300000      16.47000000 
H      30.66300000      19.78500000      18.91800000 
H      33.10700000      18.65500000      17.50200000 
H      33.12900000      19.28400000      19.13000000 
H      31.54400000      16.85200000      18.21500000 
H      33.04500000      16.84900000      19.09200000 
H      31.78600000      18.26800000      20.89000000 
H      30.32000000      17.71400000      20.13000000 
H      32.51500000      15.91600000      21.24000000 
H      31.07900000      16.35600000      22.11300000 
H      31.02000000      14.20800000      21.11100000 
H      29.77100000      15.13500000      20.57400000 
H      31.03800000      14.83800000      19.60000000 
N      32.30600000      21.43700000      16.62400000 
C      32.79700000      22.77500000      16.33300000 
C      31.67400000      23.79400000      16.32400000 
O      31.86900000      24.93700000      16.77200000 
C      33.53300000      22.82100000      14.97500000 
C      35.04400000      22.54200000      15.07100000 
C      35.60100000      22.20500000      13.68100000 
C      35.79400000      23.74100000      15.66900000 
H      32.25400000      20.76900000      15.88800000 
H      33.45600000      23.08300000      17.12800000 
H      33.06000000      22.11400000      14.30400000 
H      33.39900000      23.80200000      14.53200000 
H      35.19600000      21.68000000      15.71700000 
H      36.67100000      22.03100000      13.72400000 
H      35.13100000      21.31500000      13.27600000 
H      35.42400000      23.02300000      12.98900000 
H      36.85100000      23.52400000      15.77000000 
H      35.69100000      24.60900000      15.02300000 
H      35.41900000      24.01300000      16.65000000 
N      30.50900000      23.44900000      15.75900000 
C      29.47100000      24.44100000      15.56800000 
C      28.74500000      24.78100000      16.85500000 
O      28.24300000      25.92400000      16.97500000 
C      28.48800000      23.99900000      14.46300000 
C      27.67400000      25.14700000      13.85000000 
C      28.54600000      26.12800000      13.05400000 
C      27.78300000      27.37900000      12.61000000 
N      28.69400000      28.57600000      12.67600000 
H      30.38900000      22.53200000      15.38200000 
H      29.95100000      25.36200000      15.28100000 
H      29.07600000      23.53000000      13.68500000 
H      27.82200000      23.23900000      14.85400000 
H      26.92300000      24.71900000      13.19600000 
H      27.14200000      25.68300000      14.62700000 
H      29.38300000      26.44200000      13.66500000 
H      28.96900000      25.62800000      12.18900000 
H      27.41000000      27.30200000      11.60100000 
H      26.96000000      27.60100000      13.27000000 
H      28.24700000      29.40400000      12.31500000 
H      28.92700000      28.73400000      13.65400000 
H      29.54100000      28.43300000      12.14900000 
N      28.66000000      23.87300000      17.82300000 
C      27.93600000      24.08600000      19.08000000 
C      28.35200000      25.39400000      19.74100000 
O      27.49700000      26.14700000      20.23600000 
C      28.19200000      22.84300000      19.96700000 
C      27.39400000      22.67100000      21.27900000 
C      27.83000000      23.60100000      22.42200000 
C      25.87500000      22.72500000      21.06500000 
H      29.02800000      22.95800000      17.65200000 
H      26.88200000      24.19000000      18.87200000 
H      27.96600000      21.98600000      19.34200000 
H      29.25400000      22.79500000      20.18900000 
H      27.63400000      21.65800000      21.59700000 
H      27.38200000      23.27200000      23.35400000 
H      28.90700000      23.58900000      22.54900000 
H      27.51800000      24.62300000      22.25400000 
H      25.35900000      22.42900000      21.97200000 
H      25.54300000      23.72500000      20.81100000 
H      25.56600000      22.05300000      20.27200000 
N      29.65400000      25.69900000      19.78000000 
C      30.17200000      26.89700000      20.43000000 
C      29.62500000      28.17900000      19.82000000 
O      29.53700000      29.20200000      20.51700000 
C      31.72100000      26.81300000      20.38100000 
C      32.50700000      28.10500000      20.70000000 
C      33.80900000      27.76800000      21.43800000 
C      32.82300000      28.89900000      19.42200000 
H      30.30900000      25.07100000      19.37300000 
H      29.85100000      26.91800000      21.46200000 
H      31.99000000      26.03700000      21.08800000 
H      32.01400000      26.45900000      19.39900000 
H      31.90800000      28.73100000      21.35200000 
H      34.38200000      28.66900000      21.63100000 
H      33.60700000      27.28700000      22.38900000 
H      34.42600000      27.09900000      20.84600000 
H      33.33500000      29.82500000      19.66200000 
H      33.46900000      28.31700000      18.77100000 
H      31.93300000      29.15100000      18.86100000 
N      29.29800000      28.17200000      18.52100000 
C      28.94700000      29.37500000      17.79600000 
C      27.46000000      29.69300000      17.76800000 
O      27.09800000      30.77900000      17.28000000 
C      29.48700000      29.31500000      16.36500000 
O      28.73600000      28.42100000      15.52600000 
H      29.29300000      27.30400000      18.03300000 
H      29.42000000      30.21300000      18.28700000 
H      29.40500000      30.28500000      15.90700000 
H      30.52500000      29.01800000      16.39300000 
H      28.63200000      27.53100000      15.87400000 
N      26.58300000      28.80600000      18.24000000 
C      25.15300000      29.06200000      18.14800000 
C      24.75600000      30.13300000      19.16000000 
O      25.25900000      30.12700000      20.29800000 
C      24.35300000      27.74000000      18.34000000 
C      24.31500000      27.22800000      19.78500000 
C      22.92800000      27.86600000      17.78200000 
H      26.90200000      27.97000000      18.67700000 
H      24.95700000      29.41300000      17.14900000 
H      24.88300000      27.01200000      17.73300000 
H      23.90300000      26.22500000      19.79800000 
H      25.29500000      27.18800000      20.23500000 
H      23.68300000      27.85300000      20.40000000 
H      22.41900000      26.91500000      17.86600000 
H      22.35000000      28.59400000      18.33800000 
H      22.93300000      28.15300000      16.73800000 
N      23.83500000      31.05100000      18.83200000 
C      23.35100000      31.98700000      19.85200000 
C      22.65400000      31.25900000      20.99300000 
O      21.90600000      30.29200000      20.77500000 
C      22.36800000      32.89200000      19.08000000 
C      22.87200000      32.82800000      17.63600000 
C      23.33100000      31.37900000      17.48100000 
H      24.18200000      32.55900000      20.24200000 
H      21.36500000      32.48500000      19.14000000 
H      22.35300000      33.89500000      19.48300000 
H      22.10600000      33.08900000      16.91800000 
H      23.71000000      33.50100000      17.49700000 
H      22.50700000      30.73400000      17.21200000 
H      24.11300000      31.27700000      16.74700000 
N      29.01600000      10.67800000      21.35200000 
C      27.59600000      10.95900000      21.20500000 
C      26.83600000      10.63700000      22.48200000 
O      25.89800000      11.36300000      22.85500000 
C      27.03100000      10.14100000      20.04100000 
H      29.44900000      10.09600000      20.67100000 
H      27.44400000      12.01300000      21.02700000 
H      25.96200000      10.27600000      19.97800000 
H      27.47300000      10.46900000      19.10900000 
H      27.23800000       9.08700000      20.17600000 
N      27.70800000      13.28600000      25.17900000 
C      27.08800000      14.55500000      24.83700000 
C      25.66200000      14.56100000      25.35000000 
O      25.24000000      15.55800000      25.95600000 
C      27.16200000      14.78000000      23.31500000 
C      26.45800000      16.04400000      22.78700000 
C      27.08600000      17.34400000      23.30900000 
C      26.48000000      16.02500000      21.25300000 
H      28.08800000      12.73200000      24.43900000 
H      27.58300000      15.35900000      25.36100000 
H      28.21100000      14.81800000      23.04400000 
H      26.73500000      13.91400000      22.82500000 
H      25.41600000      16.02000000      23.09700000 
H      26.59500000      18.20300000      22.86300000 
H      26.99900000      17.43900000      24.38400000 
H      28.13900000      17.38900000      23.04900000 
H      25.90800000      16.85200000      20.85200000 
H      27.49600000      16.11300000      20.88000000 
H      26.05800000      15.10500000      20.86200000 
N      20.60800000      23.66200000      15.97000000 
C      21.92000000      23.29900000      15.44800000 
C      21.76500000      22.30100000      14.30300000 
O      22.46100000      22.40300000      13.27100000 
C      22.88000000      22.76000000      16.54200000 
C      24.31200000      22.69700000      15.98800000 
C      22.86400000      23.63600000      17.80100000 
H      20.30900000      23.32600000      16.86000000 
H      22.36200000      24.18100000      15.01100000 
H      22.55800000      21.76100000      16.81500000 
H      24.97800000      22.29200000      16.73900000 
H      24.39400000      22.07800000      15.10500000 
H      24.65800000      23.69400000      15.73600000 
H      23.60900000      23.27100000      18.49800000 
H      23.11200000      24.66300000      17.55500000 
H      21.91100000      23.62500000      18.30600000 
N      20.86700000      21.32100000      14.44200000 
C      20.69800000      20.31200000      13.41100000 
C      20.20400000      20.90200000      12.09900000 
O      20.66200000      20.44400000      11.03500000 
C      19.72900000      19.20400000      13.85400000 
C      20.23000000      18.28900000      14.98600000 
C      19.06100000      17.41100000      15.44900000 
C      21.41500000      17.41400000      14.55800000 
H      20.31300000      21.25900000      15.27200000 
H      21.66100000      19.88700000      13.17400000 
H      18.79600000      19.66800000      14.15400000 
H      19.51500000      18.58900000      12.98700000 
H      20.54000000      18.90400000      15.82200000 
H      19.36500000      16.74900000      16.25200000 
H      18.23400000      18.01400000      15.80500000 
H      18.69900000      16.79900000      14.63200000 
H      21.74100000      16.79300000      15.38600000 
H      21.13500000      16.75800000      13.73900000 
H      22.26700000      18.00200000      14.24000000 
N      20.61800000      24.00100000      10.95000000 
C      21.54500000      24.96200000      10.37500000 
C      22.72800000      24.27600000       9.70000000 
O      23.21900000      24.76500000       8.67000000 
C      22.04600000      25.94800000      11.44000000 
C      22.65100000      27.22000000      10.85200000 
O      22.03400000      27.76900000       9.89200000 
O      23.70100000      27.66200000      11.39800000 
H      20.65500000      23.82500000      11.93000000 
H      21.04000000      25.51500000       9.60300000 
H      21.19500000      26.24300000      12.04300000 
H      22.76300000      25.47900000      12.10000000 
N      23.23800000      23.18600000      10.30000000 
C      24.45600000      22.55300000       9.83000000 
C      24.29200000      21.07100000       9.52600000 
O      24.93700000      20.56000000       8.59200000 
C      25.60600000      22.76500000      10.83700000 
C      26.97400000      22.41100000      10.24800000 
S      28.12000000      21.60200000      11.48600000 
C      27.30100000      19.92400000      11.61600000 
H      22.85000000      22.91000000      11.17900000 
H      24.71400000      23.01600000       8.89300000 
H      25.59300000      23.80700000      11.12600000 
H      25.39600000      22.19100000      11.73100000 
H      26.89600000      21.73200000       9.41600000 
H      27.49300000      23.29500000       9.91200000 
H      27.86100000      19.34300000      12.32700000 
H      26.28800000      20.03300000      11.96600000 
H      27.31600000      19.44000000      10.65400000 
N      23.49100000      20.32700000      10.29400000 
C      23.30800000      18.91200000      10.04600000 
C      22.62200000      18.63200000       8.72100000 
O      23.01100000      17.69000000       8.00900000 
H      22.95100000      20.73700000      11.01900000 
H      24.25100000      18.39400000      10.03400000 
H      22.70400000      18.50700000      10.84400000 
N      21.57700000      19.40600000       8.40400000 
C      20.91400000      19.43400000       7.10100000 
C      20.33100000      18.07400000       6.71900000 
O      20.36400000      17.67000000       5.54600000 
C      21.80700000      19.99500000       5.98500000 
C      22.31200000      21.42800000       6.21600000 
C      23.34900000      21.78300000       5.14200000 
C      21.17800000      22.46100000       6.22700000 
H      21.26900000      20.06000000       9.09200000 
H      20.05800000      20.08500000       7.23500000 
H      22.65200000      19.33100000       5.85900000 
H      21.24300000      19.96600000       5.06200000 
H      22.81000000      21.46600000       7.17700000 
H      23.75900000      22.77300000       5.31600000 
H      24.17100000      21.07600000       5.13900000 
H      22.89700000      21.77800000       4.15400000 
H      21.58000000      23.45800000       6.36500000 
H      20.63400000      22.44500000       5.28700000 
H      20.47600000      22.29000000       7.03000000 
N      19.73000000      17.37900000       7.69600000 
C      19.16700000      16.06100000       7.49500000 
C      17.68200000      16.05700000       7.81000000 
O      17.20300000      16.74900000       8.72500000 
C      19.87000000      15.03200000       8.40100000 
C      21.31100000      14.76000000       7.94300000 
C      22.09800000      14.13200000       9.06300000 
O      21.85900000      12.97300000       9.45200000 
N      23.02600000      14.90300000       9.63600000 
H      19.72400000      17.74800000       8.62000000 
H      19.31100000      15.79700000       6.46000000 
H      19.85900000      15.41800000       9.41400000 
H      19.31900000      14.10300000       8.39900000 
H      21.30100000      14.07400000       7.10600000 
H      21.78500000      15.67600000       7.63100000 
H      23.21700000      15.82000000       9.29700000 
H      23.55000000      14.56800000      10.41100000 
H      21.31235086      12.14270212      17.63763223 
H      22.54240925       9.18942261      16.28020084 
H      22.44940789      10.24028373      11.62006178 
H      22.79510172      31.55764991      21.93687421 
H      29.47889177      11.44948891      21.32884681 
H      27.08969136       9.83772666      23.02679614 
H      28.39769697      13.42986593      25.73901847 
H      25.07282309      13.76730538      25.19860841 
H      20.55337085      24.55681339      16.04952767 
H      19.52808755      21.63895544      12.10524851 
H      19.77295390      24.27190377      10.79997254 
H      17.05890028      15.48656338       7.27488431 
