260
Properties=species:S:1:pos:R:3 pbc="F F F"
N      27.40300000      49.49300000      18.99700000 
C      27.71900000      49.96800000      17.70400000 
C      28.07500000      51.46400000      17.83500000 
O      27.76500000      52.12200000      18.78000000 
C      26.54400000      49.92000000      16.70700000 
C      25.63500000      48.64800000      16.77000000 
C      26.14100000      47.46400000      15.94400000 
N      26.13200000      47.75700000      14.55000000 
C      26.54400000      46.95900000      13.53200000 
N      26.88500000      45.74300000      13.80000000 
N      26.61400000      47.45900000      12.28400000 
H      26.69100000      49.96900000      19.52000000 
H      28.55800000      49.41200000      17.32200000 
H      25.88500000      50.75800000      16.89400000 
H      26.93300000      50.04000000      15.71300000 
H      25.52300000      48.33100000      17.78600000 
H      24.65500000      48.93100000      16.40300000 
H      27.11100000      47.15500000      16.24400000 
H      25.44400000      46.61300000      16.13000000 
H      25.76700000      48.70100000      14.24300000 
H      26.81800000      45.33300000      14.68700000 
H      27.25100000      45.14800000      13.07100000 
H      26.41600000      48.39700000      12.07900000 
H      26.89000000      46.85400000      11.54500000 
N      28.68700000      52.01800000      16.76200000 
C      28.96300000      53.44200000      16.61500000 
C      28.33000000      54.05000000      15.38100000 
O      28.80400000      54.90900000      14.74600000 
C      30.44700000      53.72000000      16.50700000 
C      31.18500000      53.89900000      17.89300000 
O      32.19900000      53.29100000      18.07200000 
N      30.64900000      54.72700000      18.69200000 
H      29.03500000      51.39400000      16.01800000 
H      28.53000000      53.91000000      17.43900000 
H      30.98100000      52.92200000      15.98700000 
H      30.62000000      54.64000000      15.97500000 
H      31.09300000      54.89800000      19.59900000 
H      29.85300000      55.33100000      18.51800000 
N      26.97900000      53.59200000      15.07900000 
C      26.32700000      54.12900000      13.88500000 
C      26.50300000      55.64800000      13.76500000 
O      26.85700000      56.12000000      12.64500000 
C      24.85400000      53.80000000      14.03200000 
C      23.96300000      54.38300000      12.88500000 
C      24.01000000      53.64800000      11.59200000 
N      23.21500000      54.34300000      10.57000000 
C      23.15300000      54.12000000       9.30300000 
N      23.77300000      53.07800000       8.78600000 
N      22.47700000      54.89900000       8.49300000 
H      26.62700000      52.91100000      15.57000000 
H      26.77200000      53.72900000      13.01500000 
H      24.74400000      52.70700000      13.99900000 
H      24.48000000      54.13600000      14.96000000 
H      22.92100000      54.41000000      13.26400000 
H      24.22600000      55.43100000      12.72000000 
H      25.00500000      53.55200000      11.22600000 
H      23.59200000      52.63500000      11.71400000 
H      22.66100000      55.15700000      10.92200000 
H      24.28000000      52.39400000       9.37100000 
H      23.80300000      52.87800000       7.80600000 
H      22.02500000      55.72700000       8.81000000 
H      22.40000000      54.71200000       7.48800000 
N      26.16300000      56.47300000      14.77200000 
C      26.07600000      57.86000000      14.60100000 
C      27.43100000      58.47900000      14.20700000 
O      27.51200000      59.33200000      13.31700000 
C      25.48400000      58.59700000      15.81100000 
C      24.07000000      58.02200000      16.15400000 
C      25.42700000      60.11600000      15.60300000 
C      23.02700000      58.08800000      15.04800000 
H      25.93900000      56.06000000      15.65900000 
H      25.44800000      58.08400000      13.70900000 
H      26.12200000      58.38800000      16.65900000 
H      24.15900000      57.01700000      16.49700000 
H      23.71100000      58.59900000      17.02700000 
H      24.95000000      60.58600000      16.47800000 
H      26.40400000      60.54700000      15.50600000 
H      24.85000000      60.38400000      14.73500000 
H      22.08700000      57.71400000      15.39300000 
H      22.85500000      59.12200000      14.70800000 
H      23.31700000      57.51100000      14.18700000 
N      28.51200000      58.07200000      14.87200000 
C      29.81700000      58.61700000      14.66700000 
C      30.40400000      58.20600000      13.29300000 
O      31.04300000      58.99100000      12.65900000 
C      30.75000000      58.26500000      15.87000000 
C      30.11500000      58.51100000      17.20600000 
C      32.11100000      58.99900000      15.72200000 
C      29.73200000      59.94800000      17.54800000 
H      28.41600000      57.26400000      15.51100000 
H      29.72000000      59.72800000      14.62200000 
H      30.96100000      57.19600000      15.77300000 
H      29.21800000      57.88700000      17.31700000 
H      30.80000000      58.12600000      17.95800000 
H      32.74400000      58.73200000      16.58200000 
H      32.64800000      58.73300000      14.83300000 
H      31.97900000      60.07700000      15.74000000 
H      29.28000000      59.99400000      18.54700000 
H      30.63000000      60.59200000      17.59500000 
H      29.05800000      60.38000000      16.86000000 
N      30.14200000      56.97300000      12.93100000 
C      30.66300000      56.45300000      11.67400000 
C      29.96600000      57.04000000      10.46700000 
O      30.68200000      57.14700000       9.36400000 
C      30.64000000      54.90900000      11.63200000 
C      31.50900000      54.26600000      12.66500000 
C      33.00700000      54.33700000      12.40700000 
O      33.42100000      54.66200000      11.24200000 
O      33.78100000      54.06100000      13.39300000 
H      29.60400000      56.34900000      13.47600000 
H      31.74900000      56.75500000      11.58300000 
H      29.58300000      54.61000000      11.79500000 
H      30.90900000      54.58800000      10.64700000 
H      31.33100000      54.63700000      13.65200000 
H      31.27400000      53.18200000      12.72200000 
N      28.75900000      57.38800000      10.50500000 
C      27.99500000      57.93500000       9.38200000 
C      27.97700000      59.43200000       9.36300000 
O      27.27500000      60.05300000       8.49900000 
C      26.58900000      57.34400000       9.20200000 
C      26.63900000      55.78300000       9.14500000 
C      25.56400000      57.83600000      10.21300000 
H      28.20200000      57.19800000      11.37000000 
H      28.56900000      57.66500000       8.50400000 
H      26.26000000      57.68400000       8.19400000 
H      25.70200000      55.40200000       8.87300000 
H      27.37400000      55.47000000       8.38700000 
H      26.93600000      55.40000000      10.08200000 
H      24.57300000      57.39300000       9.98400000 
H      25.81600000      57.54500000      11.20600000 
H      25.44100000      58.91000000      10.16200000 
N      28.75400000      60.12100000      10.20000000 
C      28.97200000      61.55500000      10.22100000 
C      29.88400000      61.89300000       9.01600000 
O      31.12100000      62.09100000       9.18800000 
C      29.49300000      62.03300000      11.52800000 
C      28.38600000      62.24300000      12.58500000 
C      28.91600000      62.59900000      13.93200000 
O      30.09500000      62.49500000      14.23800000 
O      27.97300000      63.01200000      14.81000000 
H      29.26000000      59.58600000      10.92400000 
H      27.98700000      62.03100000       9.99400000 
H      30.23800000      61.34000000      11.90500000 
H      30.03500000      62.98000000      11.38600000 
H      27.69400000      62.97400000      12.25000000 
H      27.83500000      61.30800000      12.68600000 
N      29.27300000      61.96700000       7.84700000 
C      30.04700000      62.26200000       6.61400000 
C      30.65200000      63.67900000       6.64300000 
O      31.80200000      63.80400000       6.27200000 
C      29.12300000      62.05600000       5.37600000 
C      27.84200000      62.75200000       5.35100000 
O      27.40000000      63.47100000       6.25800000 
N      27.09500000      62.59300000       4.16400000 
H      28.34600000      61.75700000       7.78300000 
H      30.86200000      61.59500000       6.54000000 
H      29.71300000      62.25400000       4.49700000 
H      28.91700000      60.95100000       5.33800000 
H      26.24400000      63.04200000       4.11700000 
H      27.41300000      62.05700000       3.47200000 
N      29.90000000      64.63400000       7.05800000 
C      30.33400000      66.05200000       7.11100000 
C      30.06600000      66.70300000       8.43500000 
O      30.37300000      67.88000000       8.63500000 
C      29.66600000      66.83100000       5.92200000 
C      30.29800000      68.22800000       5.72000000 
C      29.77700000      68.87900000       4.43600000 
O      28.80200000      68.43300000       3.79000000 
N      30.42200000      69.99000000       4.07300000 
H      28.89500000      64.48000000       7.14800000 
H      31.39600000      66.04000000       6.97000000 
H      29.81700000      66.21800000       5.05400000 
H      28.61500000      66.91000000       6.10200000 
H      30.08600000      68.85500000       6.50200000 
H      31.36700000      68.13300000       5.61900000 
H      31.19000000      70.34000000       4.57200000 
H      30.12000000      70.49800000       3.27400000 
N      29.50500000      65.96500000       9.42100000 
C      29.10600000      66.60900000      10.68700000 
C      30.27400000      67.10400000      11.48300000 
O      30.13800000      68.20000000      12.11700000 
C      28.26000000      65.66300000      11.53100000 
H      29.28800000      65.03100000       9.28300000 
H      28.51700000      67.49700000      10.44100000 
H      27.88300000      66.15100000      12.37800000 
H      27.43800000      65.27000000      10.94100000 
H      28.87600000      64.81300000      11.85000000 
N      31.38400000      66.37200000      11.52700000 
C      32.67500000      66.69400000      12.17300000 
C      32.52500000      66.44100000      13.71700000 
O      31.99500000      67.36400000      14.38900000 
C      33.10600000      68.07700000      11.82800000 
C      34.40800000      68.48500000      12.55400000 
O      35.14700000      67.66100000      13.00200000 
N      34.60800000      69.81600000      12.58600000 
H      31.37600000      65.51500000      10.98500000 
H      33.36800000      65.97400000      11.79000000 
H      33.30000000      68.13200000      10.75300000 
H      32.33900000      68.80200000      12.05400000 
H      35.45500000      70.14200000      13.03100000 
H      33.99600000      70.46800000      12.24000000 
N      32.92000000      65.36200000      14.25300000 
C      32.63100000      65.07700000      15.63400000 
C      33.26300000      66.07600000      16.57200000 
O      34.45100000      66.41100000      16.45300000 
C      33.11600000      63.63400000      15.85400000 
C      34.28900000      63.47900000      14.85700000 
C      33.79700000      64.28500000      13.62400000 
H      31.52700000      65.11200000      15.79200000 
H      33.48300000      63.47500000      16.92500000 
H      32.36200000      62.94700000      15.67000000 
H      35.18800000      63.95400000      15.23600000 
H      34.49000000      62.46600000      14.62400000 
H      34.56500000      64.68900000      13.07900000 
H      33.16600000      63.63600000      12.99800000 
N      31.13500000      64.45100000      21.59700000 
C      30.76200000      63.31500000      20.77900000 
C      31.87200000      62.26200000      20.71300000 
O      31.63200000      61.09600000      20.80800000 
C      30.37100000      63.79100000      19.38500000 
C      29.03200000      64.55500000      19.33500000 
C      28.77400000      65.23600000      17.98700000 
O      29.74200000      65.56500000      17.28300000 
O      27.55500000      65.46900000      17.70500000 
H      31.23000000      65.36200000      21.13800000 
H      29.90900000      62.80000000      21.26000000 
H      31.13400000      64.37100000      18.97100000 
H      30.26400000      62.88800000      18.72900000 
H      28.19900000      63.90000000      19.55500000 
H      29.03100000      65.32800000      20.08100000 
N      33.08900000      62.79600000      20.51700000 
C      34.28200000      61.87300000      20.40800000 
C      34.52000000      61.13900000      21.69200000 
O      34.78000000      59.89000000      21.65100000 
C      35.50000000      62.66200000      19.99300000 
O      35.31100000      63.25500000      18.71200000 
C      36.76200000      61.81700000      19.87800000 
H      33.25700000      63.72700000      20.41900000 
H      34.06600000      61.13200000      19.62800000 
H      35.68300000      63.46400000      20.72800000 
H      34.81600000      64.15000000      18.78200000 
H      37.56100000      62.39000000      19.47900000 
H      37.05800000      61.42200000      20.84200000 
H      36.56700000      60.95800000      19.21100000 
N      31.97800000      58.35800000      22.32200000 
C      32.23800000      57.25400000      21.41500000 
C      33.34800000      56.37400000      21.91100000 
O      33.22700000      55.11000000      21.97800000 
C      32.52800000      57.76000000      20.00700000 
H      32.04100000      59.28300000      21.93400000 
H      31.33800000      56.59900000      21.40300000 
H      32.62700000      56.94900000      19.32500000 
H      31.73000000      58.40000000      19.70100000 
H      33.44300000      58.33900000      20.01000000 
H      27.11781584      48.64110587      18.94271939 
H      32.72183189      66.48241936      17.30817958 
H      30.51613368      64.57539647      22.23850604 
H      34.47397416      61.62769979      22.56323713 
H      31.14323439      58.28653779      22.65072409 
H      34.21517206      56.77867286      22.20126279 
