 250 
 
N                36.7461061186       28.3929749251       17.6031229968
C                35.3212234734       28.1257333750       17.6427417631
C                34.7731043527       28.2942778497       19.0567808722
O                33.6648377729       28.7808408645       19.2603673512
C                35.0591187659       26.7300307589       17.0757355067
C                33.5956541746       26.2772141672       17.0840704754
C                32.6683655707       27.2803750122       16.4020923127
C                33.5135523962       24.9212187151       16.3859374892
H                37.3652919954       27.5781421612       17.5928101281
H                34.8235092068       28.8878645170       17.0290592403
H                35.4280370565       26.7227824880       16.0475252376
H                35.6584416419       26.0138263486       17.6436259940
H                33.2766171999       26.1629320170       18.1255985201
H                31.6734521255       26.8557194577       16.2969033835
H                32.5845048111       28.1880268338       16.9928226411
H                33.0392024792       27.5315258998       15.4110663542
H                32.5057377549       24.5204323768       16.4432453714
H                33.7817889458       25.0214471059       15.3362882317
H                34.2001087001       24.2173915339       16.8498094194
N                22.1994512511       24.0258952219       16.2076935461
C                23.4783320740       24.1942687336       15.5503222716
C                24.1885696461       22.8407254842       15.4688711959
O                24.4535962350       22.3360688399       14.3766797705
C                24.3160963433       25.2266017104       16.2892114183
H                22.0172006657       24.6220753651       17.0115880177
H                23.3062976300       24.5028731549       14.5082396104
H                25.2057296281       25.4586495819       15.7155844061
H                23.7352786530       26.1340912830       16.4262008924
H                24.6200191910       24.8390229030       17.2579137284
N                24.5099931090       22.2814445433       16.6257341572
C                25.1735235647       21.0002658582       16.7770037972
C                24.9200900263       20.0749080984       15.5900521375
O                25.8241658965       19.6957973008       14.8524518954
C                24.6588302827       20.3266577418       18.0469813419
C                24.9848498448       18.8041021930       18.0860721915
O                26.0858190322       18.4422734841       17.6450121088
O                24.1041856737       18.0661608385       18.5860011264
H                24.2459726016       22.7193013231       17.5084164692
H                26.2639764210       21.1448407723       16.8320572255
H                25.1096805784       20.7971619992       18.9223453759
H                23.5771474539       20.4436243007       18.0932886088
N                23.6509091375       19.6683861525       15.4597002466
C                23.2861177655       18.5885567468       14.5730156018
C                23.5085036252       18.8974632603       13.0898754712
O                23.5170381002       17.9858396105       12.2703584493
C                21.8530153659       18.1257670390       14.8407567292
C                20.8105268621       19.2335305121       14.7496166995
C                19.8310242794       19.2586677490       15.9630309394
O                20.0607114198       18.4959154550       16.9272882232
O                18.8792901524       20.0511907066       15.8910003915
H                22.9307090606       20.0414089568       16.0636962914
H                23.9656019435       17.7426706091       14.7717209718
H                21.6317378948       17.3215345703       14.1372718311
H                21.8157275143       17.7114954598       15.8535720690
H                21.2719541446       20.2236115539       14.7374826299
H                20.2158856114       19.1583183496       13.8378872999
N                23.6657318884       20.1846193591       12.7635908634
C                24.1491432844       20.5908036770       11.4652209429
C                25.6647862422       20.8267642089       11.4754184835
O                26.4307150558       20.1498043507       10.7968223226
H                23.7285827465       20.8760959181       13.5021762709
H                23.9316904871       19.7779682231       10.7682394733
H                23.6422067733       21.5109075256       11.1652170745
N                26.0676817726       21.8417866449       12.2375238816
C                27.4590986183       22.2313745933       12.3416643691
C                28.4014318434       21.0421702219       12.2603393336
O                29.3221054257       21.0301414694       11.4352549478
C                27.7706787290       22.9600424333       13.6517340493
C                27.2900618533       24.4144524240       13.7343983907
C                27.7866045839       24.9899370919       15.0612708395
C                27.8118599304       25.2653902108       12.5786598281
H                25.4220574890       22.2574439001       12.9000545078
H                27.7052551279       22.8753364519       11.4885743744
H                27.3338079184       22.3842503408       14.4716066084
H                28.8569636426       22.9578474123       13.7730794556
H                26.1954919731       24.4239304007       13.7191774971
H                27.4440566393       26.0125508281       15.1932413806
H                27.4358404157       24.3889091781       15.8972928041
H                28.8739958038       24.9908916631       15.0717281234
H                27.6079956036       26.3149492758       12.7720942731
H                28.8863164559       25.1341643406       12.4715077394
H                27.3317028824       25.0013308620       11.6406690617
N                28.2866708200       20.0966003866       13.1863809164
C                29.3185206206       19.0780214490       13.2871262672
C                29.7100423974       18.6218250601       11.8796837092
O                30.8732964135       18.5573228589       11.4948563152
C                28.8294404074       17.8985024829       14.1174799469
H                27.4963050366       20.0453226108       13.8210901035
H                30.2128853944       19.5174625171       13.7527590275
H                29.6448939832       17.1992004130       14.2757300595
H                28.4611671981       18.2501436312       15.0789863343
H                28.0111191062       17.3867687979       13.6191265372
N                28.6675486417       18.1944601374       11.1541380365
C                28.8065469721       17.6216164192        9.8350139641
C                29.8211422664       18.3734248737        8.9749734919
O                30.7228744955       17.7739329127        8.4017378802
C                27.4383855547       17.6076445600        9.1419824329
O                27.5982174674       17.0891080879        7.8450946257
H                27.7345220205       18.4708759095       11.4317719153
H                29.1804285255       16.5914719746        9.9153827662
H                26.7612761946       16.9830903145        9.7387149681
H                27.0380864601       18.6296966598        9.1219709570
H                26.7258818814       16.9660088079        7.4486918745
N                29.6162172324       19.6877092605        8.8546119671
C                30.3892449263       20.4900782155        7.9340550874
C                31.4578388532       21.3665228219        8.5887944663
O                31.9808049209       22.2841812761        7.9753061205
C                29.5081875952       21.2856489356        6.9521193361
C                28.9278746292       22.6179652281        7.4424220219
C                28.1893820915       23.2906503742        6.2843911658
C                27.9930687483       22.4429107866        8.6346883176
H                28.9092373602       20.1384385935        9.4198989683
H                30.9538256181       19.7638230976        7.3276736812
H                30.1331559994       21.4959621732        6.0826344141
H                28.6989100470       20.6246628030        6.6357151070
H                29.7606910765       23.2623125594        7.7391833570
H                27.7986232674       24.2549326990        6.5977376588
H                28.8625082418       23.4487134295        5.4458122434
H                27.3606257695       22.6708899005        5.9515159120
H                27.5003425751       23.3857832011        8.8616031415
H                27.2267955652       21.6997782406        8.4230564691
H                28.5525706522       22.1309436505        9.5120504669
N                31.8501398211       21.0243788985        9.8352334112
C                32.7544487141       21.8950771810       10.5546182228
C                34.2337377618       21.5034633373       10.4869311829
O                35.0734080567       22.1941286274       11.0394833129
C                32.2895505979       22.1465638983       11.9988279868
O                31.1460677897       22.9499029618       12.0529704647
H                31.3493632698       20.3156803643       10.3605562604
H                32.7262077696       22.8642396546       10.0313700402
H                32.1157358625       21.1851603928       12.5001059458
H                33.0837181886       22.6881758545       12.5178298357
H                30.4100907132       22.4253336532       11.6846089887
N                34.5389376126       20.3993106967        9.7754427738
C                35.8588775883       20.2089238759        9.2145283683
C                36.0124628271       20.6392114324        7.7420220553
O                37.0224984713       21.2687085586        7.4385721564
C                36.3968810604       18.7759258497        9.3024208241
C                36.9469363165       18.3625453976       10.6597643272
C                37.7365008751       17.0294727874       10.4728136796
O                38.8888243595       17.1090485335       10.0298004665
O                37.1404192532       15.9724594697       10.7906708405
H                33.7755844486       19.8666639095        9.3871503080
H                36.5221776830       20.8748609446        9.7800600100
H                35.6223210855       18.0772309150        8.9875410376
H                37.2053018978       18.6980545471        8.5683124851
H                37.6442778056       19.1191579802       11.0216105671
H                36.1421905046       18.2188279869       11.3797267395
N                35.0987908878       20.3435141297        6.8127831170
C                33.9274929070       19.5029056761        6.8328506912
C                34.2731607439       18.0134237744        6.9660803473
O                35.3152387243       17.5412959327        6.5374474482
C                33.1841559037       19.6889550485        5.5056120128
C                34.1114230846       19.3041272190        4.3029532959
O                35.1253673410       20.0188415672        4.1448336995
O                33.7516872446       18.3484561814        3.6009443961
H                35.4022160847       20.5028269438        5.8372978177
H                33.2573361363       19.7961455149        7.6499728126
H                32.3001073468       19.0512042106        5.4757552324
H                32.9031147259       20.7391098417        5.4070792645
N                33.3330526047       17.3004589851        7.6070203760
C                33.4344656851       15.8614656177        7.7520979530
C                34.5850589061       15.4998277027        8.6973741186
O                35.5131965227       14.8007621162        8.3121140328
H                32.4210039163       17.6988978943        7.8155557427
H                32.4761881810       15.5017426969        8.1210927270
H                33.6707471207       15.4070739828        6.7845072047
N                34.5475941270       15.9485285347        9.9613613999
C                33.4686185418       16.5465521125       10.7149660158
C                34.0419232378       16.9111077775       12.0940799727
O                34.7986424382       16.1732571893       12.7000422621
C                32.2575747851       15.5894386083       10.8967932793
C                32.5307539124       14.0821350810       10.8218154716
C                33.3730702253       13.4924201781       11.9555622544
N                34.7941238174       13.5223670350       11.6529280521
C                35.7599410917       13.3120705023       12.5399239334
N                35.4887079750       12.7609743469       13.7221739481
N                37.0278918873       13.5063808660       12.1752281853
H                35.4665769596       15.9095728111       10.4448440592
H                33.1044422965       17.4621757602       10.2304026329
H                31.7979622902       15.8313466248       11.8559256601
H                31.5279360734       15.8439226806       10.1268605357
H                31.5516922425       13.6018239152       10.8486117729
H                32.9948075691       13.8357548202        9.8661230327
H                33.1852544191       14.0604738474       12.8714150954
H                33.0754548506       12.4475911713       12.0962408402
H                35.0736506127       13.9633266847       10.7890538713
H                34.5418651588       12.5436805654       13.9823140491
H                36.2259145506       12.6104083607       14.3906016802
H                37.2195702831       14.1817989644       11.4389210713
H                37.7520818019       13.4313316365       12.8714318315
N                33.6353734125       18.0932397745       12.5963584551
C                34.2430435235       18.6157770697       13.8025005557
C                33.2261409837       18.7909001918       14.9387813477
O                32.2689211812       19.5545933711       14.8087600370
C                34.9326438020       19.9705740908       13.5675122828
O                35.9686347098       20.0676582910       14.5120671726
H                32.8693362052       18.5951873859       12.1676389011
H                35.0332018539       17.9109504251       14.0697989378
H                35.3144550930       20.0140177342       12.5391409083
H                34.2118582332       20.7879640155       13.6979840596
H                36.5266765349       20.8248703069       14.2994398221
N                33.4447217084       18.0970123376       16.0542772412
C                32.5964576467       18.2442528247       17.2242370761
C                33.2167121426       19.2239316149       18.2333582761
O                34.4158391884       19.3842996864       18.3459002153
C                32.6219527773       16.8307269870       17.8206188951
C                34.0782773541       16.4158958392       17.6058675455
C                34.4836071087       17.1021338065       16.2931952713
H                31.6078658619       18.5848481802       16.9098933714
H                32.3409514744       16.8129106787       18.8709951210
H                31.9413172935       16.1964850906       17.2526167320
H                34.6935681965       16.7982301759       18.4185318923
H                34.1887284934       15.3370188361       17.5473546105
H                35.4565985389       17.5908185644       16.3827696341
H                34.5113378468       16.4021588244       15.4576636767
N                32.3186733544       19.8022788436       19.0647605985
C                32.7210716103       20.5503645752       20.2331745586
C                32.3515638951       19.8124893401       21.5234111125
O                32.5623646988       20.3143415328       22.6214412889
C                32.2216056802       22.0143816645       20.2617988063
C                30.7892729974       22.1648182566       19.7205190202
C                33.2103500852       22.9298239959       19.5469969696
C                30.6666358553       22.3472928012       18.2083864996
H                31.3348799339       19.7613721678       18.8436773370
H                33.8210297344       20.5631723852       20.2032097926
H                32.1987956498       22.2974167365       21.3184771620
H                30.1898512136       21.3069146733       20.0381436171
H                30.3332199640       23.0399385599       20.1846547225
H                32.8249277001       23.9452489463       19.5224609669
H                34.1609612644       22.9261333985       20.0707254814
H                33.3769193744       22.5917276548       18.5284704010
H                29.6188836951       22.2789947154       17.9185268588
H                31.0323761918       23.3272634020       17.9149443939
H                31.2165740384       21.5988864172       17.6438768991
N                31.9078225065       18.5536707948       21.3581068708
C                31.2899126477       17.7569700926       22.4036216569
C                30.0847227901       18.5361809488       22.9726813444
O                29.7601978166       19.6253454463       22.5343884485
C                32.2966781901       17.4192774278       23.5307678274
O                32.3877910228       18.4387707120       24.4904691862
H                31.7271823081       18.2686184740       20.4065797090
H                30.9349693888       16.8336630672       21.9397061087
H                31.9885264624       16.5142603011       24.0559790283
H                33.2717411394       17.2341832067       23.0623762896
H                32.5447830559       19.2668941382       23.9779911207
H                36.9436520765       28.8598011753       16.8594504568
H                35.3198959776       28.0055626815       19.8426959252
H                21.5365188225       24.1950347512       15.6229607740
H                29.5469870661       18.1483937740       23.7213210430
