66
Properties=species:S:1:pos:R:3 pbc="F F F"
N      61.49100000      62.57900000      46.71700000 
C      61.49200000      63.26800000      48.01000000 
C      61.11100000      64.70900000      47.76600000 
O      61.95300000      65.64500000      47.86900000 
C      62.83000000      63.12600000      48.71300000 
C      62.78000000      63.67500000      50.11700000 
O      61.72700000      63.90300000      50.70200000 
N      64.01500000      63.87500000      50.70300000 
H      61.81200000      63.09300000      45.91800000 
H      60.71800000      62.81500000      48.61900000 
H      63.06700000      62.08400000      48.78100000 
H      63.61200000      63.60500000      48.14900000 
H      64.01900000      64.19900000      51.65300000 
H      64.83000000      63.71100000      50.25200000 
N      59.84000000      64.94300000      47.37100000 
C      59.35300000      66.21300000      46.90800000 
C      57.82100000      66.12300000      46.83700000 
O      57.09200000      67.00200000      47.37000000 
C      59.96200000      66.55500000      45.52900000 
C      59.47700000      67.87900000      44.92200000 
C      59.89600000      69.13300000      45.69800000 
O      60.82000000      69.08200000      46.52700000 
N      59.22800000      70.21600000      45.43200000 
H      59.22700000      64.15400000      47.42000000 
H      59.58800000      66.99100000      47.62800000 
H      61.03200000      66.59400000      45.65100000 
H      59.71600000      65.75700000      44.83000000 
H      59.90800000      67.98100000      43.93400000 
H      58.39300000      67.89800000      44.79000000 
H      58.46900000      70.25600000      44.76600000 
H      59.47800000      71.09500000      45.89200000 
N      57.34700000      65.08600000      46.15200000 
C      55.97100000      64.70600000      45.95300000 
C      55.52200000      63.78400000      47.12700000 
O      56.36900000      63.49300000      48.00900000 
C      55.88200000      64.07800000      44.54400000 
C      56.16900000      65.11300000      43.41100000 
C      56.36200000      64.34400000      42.07800000 
C      55.04000000      66.13200000      43.24100000 
H      58.00700000      64.46400000      45.74400000 
H      55.34200000      65.59100000      46.01800000 
H      56.64000000      63.29200000      44.49200000 
H      54.93100000      63.62200000      44.36400000 
H      57.07600000      65.63500000      43.63200000 
H      56.60600000      65.04000000      41.28100000 
H      57.18900000      63.63400000      42.15800000 
H      55.46900000      63.80300000      41.80300000 
H      55.28300000      66.83900000      42.45700000 
H      54.09700000      65.63300000      42.96200000 
H      54.85200000      66.69800000      44.15200000 
N      54.25900000      63.37900000      47.27500000 
C      53.81000000      62.80900000      48.52300000 
C      54.07300000      61.34700000      48.68000000 
O      54.25300000      60.58200000      47.68800000 
C      52.27300000      63.08600000      48.51000000 
C      51.90400000      62.97200000      47.02600000 
C      53.15500000      63.53700000      46.28900000 
H      54.28500000      63.33000000      49.35000000 
H      51.73100000      62.40200000      49.12400000 
H      52.10300000      64.08600000      48.87900000 
H      51.75700000      61.95000000      46.75000000 
H      51.03200000      63.53100000      46.78200000 
H      53.34000000      62.97200000      45.39800000 
H      53.02800000      64.57400000      46.01800000 
H      62.02264915      61.85423108      46.76237843 
H      54.11169574      60.94116370      49.59312624 
