 276 
 
N                29.9448001160       18.3640393102       26.7383593425
C                30.4793484536       18.7181867776       28.0414704895
C                31.3009537904       20.0032637964       27.9507346230
O                31.2382848401       20.8801057654       28.8011139139
C                31.3914705363       17.6164040807       28.5887613255
C                30.6368810547       16.3502511220       29.0029262156
C                31.6015531755       15.3793198040       29.6828286441
N                30.9064841169       14.1605395010       30.0624495590
C                31.5062325998       13.0787017105       30.5494428635
N                32.8272893241       13.0486337167       30.7079052565
N                30.7893192743       11.9842887878       30.8000667346
H                30.2140741962       17.4695250037       26.3581861930
H                29.6504616618       18.9118480239       28.7334678975
H                32.1487340651       17.3783690145       27.8398136865
H                31.8973555211       18.0236325378       29.4651921622
H                29.8313052744       16.6111965525       29.6915915022
H                30.1897948447       15.8690330008       28.1332152143
H                32.4039065618       15.1224222419       28.9851400719
H                32.0280081766       15.8607433443       30.5697595706
H                29.8968480653       14.1841734007       30.0387401939
H                33.3791681323       13.8896137176       30.6550889487
H                33.2709326618       12.2326029811       31.0964826525
H                29.7849008980       11.9891039672       30.7228859296
H                31.2152448439       11.1725629177       31.2158220161
N                30.0463399824       26.6420685713       36.5772102259
C                29.5636066424       25.3536524799       37.0314942449
C                28.1025771085       25.1197465331       36.6330201158
O                27.7402410855       24.0330059272       36.1827602778
C                29.7421036738       25.2602484295       38.5471234498
C                31.1735561067       25.4703648310       38.9687414921
C                32.2202480348       24.8186500717       38.3240265146
C                31.4675967010       26.2956370170       40.0462133604
C                33.5286901936       25.0051155694       38.7344465140
C                32.7723919425       26.4628557259       40.4740080236
C                33.8086281300       25.8271035486       39.8131428816
H                30.3017887326       27.3325122423       37.2747139324
H                30.1318370675       24.5619109112       36.5237531788
H                29.1065842582       26.0113794639       39.0196059485
H                29.4097008440       24.2729342944       38.8791496033
H                32.0168104009       24.1494640678       37.5012037921
H                30.6675735334       26.8037476770       40.5623887757
H                34.3264735758       24.4964807520       38.2151003196
H                32.9747006404       27.0816320970       41.3347922304
H                34.8292791333       25.9539633237       40.1394043985
N                27.8584164065       23.7836146364       33.1498274251
C                28.1702538532       22.3669987758       33.1185567232
C                26.8910195560       21.5802047432       33.4421143928
O                26.4440608038       20.7033498062       32.7124946991
C                29.3024643845       22.0151382429       34.0938922754
C                29.5143636418       20.5017336293       34.1039215381
C                30.5952164445       22.7220831158       33.6849655449
H                28.4773561710       24.4090869706       33.6499187759
H                28.4698575936       22.0848418173       32.1024314181
H                29.0047602585       22.3520827461       35.0905625731
H                30.3314562687       20.2343996082       34.7671395954
H                28.6237963217       19.9718889689       34.4342158075
H                29.7560743128       20.1525242499       33.1032961732
H                31.4012968242       22.4225784669       34.3486445374
H                30.8649633749       22.4408775032       32.6700935549
H                30.4967935137       23.8040540837       33.7359909090
N                26.3408089059       21.9361522922       34.6087066251
C                25.2231928123       21.2063930523       35.1650448212
C                24.0202831161       21.3040621444       34.2228027002
O                23.3154664736       20.3340625620       33.9613267627
C                24.8590441938       21.7412166383       36.5586226506
C                23.6471047262       20.9941468029       37.1065964590
C                26.0327425824       21.5986798085       37.5263046124
H                26.7673743155       22.6703269758       35.1625887813
H                25.4848850133       20.1387287896       35.2218314742
H                24.6131961868       22.8020454220       36.4443093247
H                23.3585457726       21.4162952241       38.0634639089
H                22.8067993759       21.0517702487       36.4211799334
H                23.8910522816       19.9430484394       37.2468274130
H                25.7239771989       21.9083654259       38.5214516112
H                26.3592232294       20.5615259270       37.5718644754
H                26.8750744246       22.2118470269       37.2216266405
N                23.9620537909       19.0614739382       31.1344612809
C                23.8419705454       17.6484739019       31.4473557534
C                22.4061416967       17.3375720753       31.8710713409
O                21.7431926830       16.4499138146       31.3452779950
C                24.8220301954       17.2029936749       32.5216137436
C                24.9393979942       15.6446014370       32.4245158884
O                25.5695645649       15.1930462881       31.4581908113
O                24.3808948015       14.9777533978       33.3191750982
H                24.6810774500       19.6067213749       31.5929532316
H                24.0338848977       17.0755117003       30.5265793845
H                25.8011953314       17.6410474610       32.3226153942
H                24.4768735683       17.4981967074       33.5115032930
N                28.6505431880       23.9350662137       44.1030405998
C                28.2885821816       23.8694976858       42.7012651639
C                29.4473667882       23.2770521451       41.8974477663
O                29.2793351333       22.3989110394       41.0599632820
C                27.9071997830       25.2610898795       42.1890076228
C                26.8748920169       25.2048631687       41.0730289067
S                25.2848136350       24.4479937868       41.5744218194
C                24.8676821389       25.4551800975       43.0344743503
H                28.6508907538       24.8493712103       44.5453781069
H                27.4385742716       23.1819225003       42.5861935100
H                27.5145903788       25.8415703668       43.0261985067
H                28.8025718963       25.7659396614       41.8217468540
H                26.6658081028       26.2051578299       40.6943491879
H                27.2201997035       24.5780859609       40.2511947444
H                23.8039037263       25.3251643115       43.2124352533
H                25.4235939269       25.0990743532       43.8965375712
H                25.0959313055       26.4978831689       42.8375636009
N                30.6431474861       23.7975026542       42.1839541090
C                31.8439478827       23.2818010024       41.5675145459
C                31.9299703269       21.7634461089       41.6952389503
O                32.1970818328       21.0483942126       40.7343031809
H                30.7332419668       24.5627541677       42.8442063741
H                31.8726985070       23.5240547333       40.5012869858
H                32.7056306817       23.7278738003       42.0623372699
N                31.7358203368       21.3077206108       42.9304482748
C                31.8588889996       19.9039435840       43.2634090454
C                30.8083648084       19.0796754862       42.5138837067
O                31.0960853356       18.0207935490       41.9629404031
C                31.7382163353       19.7100507097       44.7785450368
C                32.5348122534       18.5012505968       45.2884288688
C                34.0263936399       18.8274098073       45.3532268083
C                32.0336703526       18.0855278655       46.6702410400
H                31.5590220977       21.9612003387       43.6869367318
H                32.8354764050       19.5486803121       42.9087040250
H                32.1110155573       20.6129138597       45.2667583729
H                30.6830756101       19.6051007039       45.0363516248
H                32.3802872062       17.6683752203       44.5939603398
H                34.5882630198       17.9613897164       45.6926395280
H                34.4104011559       19.1143317519       44.3776488088
H                34.1995744170       19.6460514648       46.0482478127
H                32.6120326112       17.2438695737       47.0417372566
H                32.1345864791       18.9098941599       47.3719333036
H                30.9885278742       17.7896252408       46.6273872467
N                29.5781326585       19.5899432785       42.5245319427
C                28.4689043711       18.9032488645       41.8878653361
C                28.7777758939       18.7286760768       40.3978332797
O                28.6677174796       17.6459429635       39.8282595510
C                27.1536096873       19.6627649001       42.1330830445
C                25.9775536586       18.7541229833       42.3157494112
C                25.9128441837       17.6669864805       43.1420514002
C                24.6858204681       18.8767592742       41.7131086719
N                24.6694076965       17.1045340379       43.0923084998
C                23.8963569823       17.8165040507       42.2248421467
C                24.1084032497       19.7712809112       40.8107045336
C                22.5702517133       17.6359674400       41.8508419552
C                22.7933381018       19.5882758831       40.4467072522
C                22.0311894313       18.5324882396       40.9555417704
H                29.3839058644       20.4388072200       43.0486723872
H                28.4032646690       17.8884256846       42.3000920469
H                27.2861583975       20.2566834973       43.0434214732
H                26.9653864914       20.3488924514       41.3068115807
H                26.6679319181       17.2534069875       43.7831226774
H                24.3864306784       16.2738670809       43.5823986432
H                24.6848261908       20.5897873417       40.4077891458
H                21.9866604777       16.8203650807       42.2504189251
H                22.3313402774       20.2671308027       39.7462487304
H                21.0065849969       18.4158557015       40.6340255387
N                29.1844698826       19.8393253214       39.7810929045
C                29.5979805047       19.8324326158       38.3899716826
C                30.6800477409       18.7696936818       38.1919544359
O                30.6001203747       17.9053090860       37.3173072148
C                30.1227510220       21.2083308101       38.0026075749
H                29.2349513574       20.7280976096       40.2731869647
H                28.7518332797       19.5483812346       37.7487900838
H                30.4922510551       21.1833389266       36.9821140985
H                29.3166315630       21.9341292412       38.0653512097
H                30.9306342720       21.4989700242       38.6697430502
N                31.7176882389       18.8531798305       39.0191002204
C                32.8111157482       17.9096933515       38.9187344541
C                32.2622224331       16.4867528451       38.7887509989
O                32.6481385960       15.7322443052       37.9067903384
C                33.7368091152       18.0032568101       40.1367098580
C                34.8218947740       16.9698268827       40.0094498244
C                34.6798805732       15.7207216700       40.5987199757
C                35.9543869795       17.2286559932       39.2475001006
C                35.6485938403       14.7465460539       40.4282151331
C                36.9273254847       16.2593788865       39.0793963323
C                36.7747707523       15.0137669870       39.6662885167
H                31.8028760300       19.6097686783       39.6954845291
H                33.3796667115       18.1015508568       37.9974881245
H                34.1569733587       19.0099394981       40.1724152690
H                33.1421774002       17.8247937749       41.0330416699
H                33.8039330498       15.5063277338       41.1933105362
H                36.0728743891       18.1974346034       38.7848017293
H                35.5120025476       13.7797503607       40.8907912670
H                37.8037648139       16.4747819871       38.4873392240
H                37.5361871943       14.2588444130       39.5355834146
N                31.3909995610       16.1265010858       39.7352385212
C                30.8314088785       14.7904747569       39.7500451210
C                30.2545862859       14.4564452040       38.3729454359
O                30.5827364032       13.4487157341       37.7577122908
C                29.7614115001       14.6398519728       40.8439497767
C                30.4059509572       14.7653105773       42.2309219393
C                29.0469704924       13.2991337066       40.6841816401
C                29.3847745259       14.7587663465       43.3642184740
H                31.0756508251       16.7947200452       40.4285766447
H                31.6423712394       14.0659228247       39.9178304753
H                29.0378516280       15.4508827160       40.7084515561
H                31.1148095930       13.9458250844       42.3663522848
H                30.9611089025       15.7024021052       42.2740334100
H                28.2488792060       13.2012158842       41.4133395376
H                28.6128801636       13.2061960796       39.6907937838
H                29.7516918491       12.4806470279       40.8130293677
H                29.8730213962       15.0050807392       44.3034796664
H                28.6072084503       15.4943677926       43.1707450404
H                28.9184315123       13.7836719322       43.4659424239
N                29.3505690670       15.3311796761       37.9081428979
C                28.5785438264       15.0220995794       36.7239595421
C                29.4627490817       14.5812558780       35.5571031071
O                29.0904246980       13.7179900983       34.7731092882
C                27.7021894237       16.2045614060       36.2456016118
O                28.4583306727       17.2719238034       35.7394017539
C                26.7318215135       16.6569442785       37.3405119657
H                29.0972418356       16.1379335396       38.4652386695
H                27.9061323720       14.1756957087       36.9310970119
H                27.1151476079       15.8289121548       35.3929372658
H                29.1655494636       17.5092360423       36.3813009942
H                26.0781235653       17.4214836575       36.9286783441
H                26.1192595570       15.8199073496       37.6587407728
H                27.2611687998       17.0641341046       38.1982637881
N                30.6153322461       15.2464992536       35.4263820251
C                31.4913239289       15.0655840340       34.2940910317
C                32.8588830013       14.4704372718       34.6722348975
O                33.7999192057       14.5517298397       33.8914408959
C                31.7009332434       16.4028579956       33.5829892144
H                30.8583056593       15.9627061701       36.0974936099
H                30.9844381611       14.3514308045       33.6328686111
H                32.4961707192       16.3004750310       32.8512170003
H                30.7776656874       16.7302671110       33.1129657904
H                32.0009950344       17.1495783928       34.3142660175
N                32.9337025528       13.8637900504       35.8570855786
C                34.1981444546       13.5674313605       36.4817892873
C                34.3133873680       12.1381576806       37.0010151275
O                33.7589946588       11.1807402601       36.4885635444
H                32.1161904087       13.8196943198       36.4523126110
H                34.9694410229       13.7208829717       35.7184283420
H                34.3507289852       14.2765300732       37.3019544448
N                35.1775278692       12.0313547205       38.0293162049
C                35.5215464067       10.7786489298       38.6618691794
C                35.2317110745       10.7892019654       40.1589814797
O                34.3415295098       11.4539668207       40.6640675493
H                35.5123721034       12.8734741704       38.4740047727
H                34.9027411345       10.0087910110       38.1888595337
H                36.5779282068       10.5493445802       38.4892150100
N                36.0314422809        9.9689630299       40.8768850847
C                35.9184479164        9.8915931923       42.3200485034
C                37.3023975851       10.0369474117       42.9462301064
O                38.2623335002       10.4546772279       42.3022863798
C                35.2063290753        8.5753935904       42.7089182341
O                36.0013256771        7.4451489400       42.4372705792
H                36.8931390206        9.6544977237       40.4491097587
H                35.2886650762       10.7346266113       42.6374374653
H                34.9727035129        8.5593483334       43.7740653663
H                34.2610727459        8.5409113595       42.1603785837
H                36.0062434085        7.2935339463       41.4815054835
N                40.3363362146        9.1808853108       40.9002171580
C                40.7602041161       10.1579194322       39.9186348585
C                41.7049242754       11.1828922523       40.5567800797
O                42.7691605490       11.4843282326       40.0301626206
C                39.5163604710       10.8433748841       39.3281756960
O                38.6161863225        9.9030857851       38.8128048364
H                39.4926767705        9.4295836175       41.4128861992
H                41.3277291117        9.6490709890       39.1306650146
H                38.9855659421       11.3722170839       40.1242479020
H                39.8338530380       11.5738576323       38.5768092690
H                38.9612194561        9.5281928754       37.9899497574
H                29.0457539811       18.3481949564       26.7766347088
H                31.9164950877       20.1495477174       27.1763252185
H                30.7894003260       26.5271220830       36.0825905431
H                27.4320326719       25.8541911983       36.7377158287
H                27.8409608654       24.1060069602       32.3097330890
H                23.7874539538       22.1790147046       33.7982457562
H                24.1296190469       19.1614388205       30.2558664326
H                21.9747975161       17.8666319091       32.6018503020
H                28.0755955707       23.4382520619       44.5853381593
H                37.4461447569        9.7895448923       43.9044204549
H                40.1694336855        8.3968494236       40.4910334910
H                41.4573543257       11.6208723200       41.4210037662
