 437 
 
N                33.0392632004       26.0214215144       25.8912145330
C                32.8429397424       24.7192476357       26.4975102071
C                33.9403163379       23.7418424778       26.0588321742
O                34.4186319886       22.9553337657       26.8701437889
C                31.4158836560       24.2239278209       26.2770154632
C                30.4192575272       25.1143413286       26.9728608937
C                29.3544880161       25.6580237230       26.2671798571
C                30.5364301031       25.4016065691       28.3294300572
C                28.3930101810       26.4109628853       26.9113410814
C                29.5917395984       26.1666844026       28.9831076842
C                28.4901031859       26.6477316912       28.2779429710
O                27.5436100439       27.3494961459       28.9337161387
H                32.2252046500       26.5491315595       25.5830323010
H                33.0218150403       24.8129965692       27.5788566770
H                31.1879476406       24.1759729702       25.2124306279
H                31.3603796113       23.2079500554       26.6744479827
H                29.2707947787       25.4808463870       25.2074118085
H                31.3769152100       25.0206717838       28.8923440827
H                27.5578443632       26.8057151449       26.3559857676
H                29.7051722708       26.3732771177       30.0359283181
H                26.7922141719       27.5031608888       28.3418156915
N                28.7573979710       14.0256285150       22.4617884334
C                27.8729548624       14.0869943280       23.6085076214
C                27.3301250573       12.6769342887       23.8380880792
O                26.7629685934       12.0735112431       22.9317435873
C                26.6844288918       15.0302388898       23.3267373764
C                27.1630123252       16.4773164002       23.1591703983
C                25.6750510895       14.9146927743       24.4657150193
C                26.2582813328       17.2881982657       22.2389764507
H                28.3992180322       13.4993637014       21.6757455400
H                28.4376447664       14.4342958163       24.4782544527
H                26.2216010133       14.6884746573       22.3926317285
H                27.2042243956       16.9319375338       24.1504345592
H                28.1749787306       16.4794511990       22.7507643765
H                24.8855031136       15.6535297760       24.3594891051
H                25.2256570626       13.9231529357       24.4796481589
H                26.1741072084       15.0700974732       25.4214619179
H                26.5730398121       18.3289263944       22.2140697944
H                26.3058231300       16.8892040234       21.2286840734
H                25.2283171770       17.2421554243       22.5791712501
N                24.6426749780       10.3518075357       25.8932509698
C                23.2805729738       10.2914210855       26.3969411463
C                22.8782299588        8.8116131897       26.2154014054
O                23.6605439238        8.0379885857       25.6635118636
C                22.3789790699       11.2701489438       25.6041172319
C                21.7649779027       12.4241150839       26.4136644936
C                22.7978318375       13.3211585351       27.0858036985
C                20.9082446997       13.2724813634       25.4774588657
H                24.8641590327        9.5448915048       25.3158363679
H                23.2738012535       10.5471744948       27.4633920544
H                22.9885696286       11.6917638866       24.8039554685
H                21.5761732635       10.7154844113       25.1138104800
H                21.1185587147       12.0061820006       27.1960263128
H                22.2915874358       13.9966810409       27.7693493590
H                23.5349909191       12.7570163194       27.6476513083
H                23.3443441240       13.9125062453       26.3519362109
H                20.3476182997       14.0100865273       26.0432799848
H                21.5370069953       13.7981102897       24.7621979208
H                20.2134962818       12.6493934450       24.9248354229
N                28.1616777407       27.3952170118       20.9395451672
C                26.8879505149       27.4258620565       21.6293755647
C                25.7627786713       26.9271046763       20.7268744290
O                24.9559074517       26.0897714034       21.1029647815
C                26.5943282813       28.8409422382       22.1372770618
C                25.3499018280       28.8721143562       23.0273089924
C                25.6290869726       28.3195937699       24.4346375203
N                24.6870032314       27.2750657432       24.7895766255
C                24.2469093643       26.9674555420       26.0042608570
N                24.6105214748       27.6725567786       27.0855787421
N                23.4517235647       25.9143985506       26.1417576267
H                28.4007994914       28.2198912642       20.4054386862
H                26.9646980868       26.7100733719       22.4550729300
H                27.4554968444       29.2091577814       22.6972956119
H                26.4578659572       29.4994876515       21.2787033127
H                25.0119993385       29.9032982856       23.0945508304
H                24.5633866968       28.2909325314       22.5450032266
H                26.6458044766       27.9175449058       24.4622984989
H                25.5720814596       29.1444230257       25.1444667560
H                24.3996837632       26.6489995264       24.0388670435
H                25.0204810135       28.5847841049       26.9532935963
H                24.1185035208       27.5034709728       27.9511386807
H                23.1835566740       25.3890837808       25.3197884523
H                23.1000697478       25.6198790023       27.0376014924
N                25.9743659476       23.0449374176       20.1188584546
C                25.5483667859       22.3122749975       21.2985281305
C                24.0199966793       22.3304361588       21.3556112340
O                23.3583992617       21.3020659360       21.4480382009
C                26.1819002877       22.8935025182       22.5705361992
C                25.4119397093       22.4343194433       23.8078304441
C                27.6482684459       22.4762321619       22.6607881462
H                26.5945545956       23.8379589023       20.2350322255
H                25.8315871361       21.2597040374       21.1712689395
H                26.1245127424       23.9821015460       22.4915893300
H                25.9515898775       22.7235936721       24.7034381597
H                24.4203137314       22.8764398687       23.8286749945
H                25.3036418167       21.3527281456       23.7971621426
H                28.0856563734       22.8682169607       23.5746159846
H                27.7311176670       21.3918391038       22.6691952347
H                28.2048309752       22.8661683372       21.8133701920
N                21.3751996202       19.1994642403       21.0857896633
C                20.4599501496       19.0034170044       22.1998204089
C                19.0145272766       19.0361550184       21.6947008495
O                18.1889631096       18.1877493980       22.0236273101
C                20.7569750822       20.0590870039       23.2673293159
C                19.8884053027       19.9651946325       24.5330080119
C                20.6623030175       20.5163605860       25.7321476815
C                18.5730143195       20.7277605120       24.3714900849
H                22.0685296802       19.9368873955       21.1621220596
H                20.6153811155       17.9994500616       22.6176164747
H                21.8048659457       19.9170028383       23.5381805808
H                20.6514600234       21.0460752745       22.8130167039
H                19.6603629894       18.9097093677       24.7196672431
H                20.0484782768       20.4714067610       26.6279409500
H                21.5626580832       19.9331195045       25.9072682795
H                20.9425940493       21.5507812540       25.5516030018
H                18.0081012712       20.7125782251       25.3008703841
H                18.7643400220       21.7629845518       24.0969370636
H                17.9567690589       20.2800312148       23.5971870979
N                21.6832327065        9.7322113588       34.5818566174
C                22.0406583689       10.8000257320       35.4936029768
C                22.9034853899       10.2533519732       36.6407530293
O                22.8601495231        9.0857821967       37.0000108345
C                20.7807868109       11.4199598376       36.0812525827
H                20.7289972118        9.3841462249       34.6027531740
H                22.6217000880       11.5536861715       34.9524668526
H                21.0359393660       12.2210912285       36.7685763270
H                20.1579611269       11.8239928251       35.2900917994
H                20.2194537456       10.6689259895       36.6311656127
N                23.6885364980       11.1855021535       37.1978570783
C                24.5140548080       10.9364436322       38.3596981118
C                23.9788415947       11.8054674785       39.4974454219
O                23.7875802401       13.0022216632       39.3501160317
C                25.9879982637       11.2906001918       38.1209508807
C                26.6465126523       10.3463962022       37.1175908686
C                26.2179986044       10.6311341501       35.6724720641
N                27.3654224383       10.9575967481       34.8434870483
C                27.3440130431       11.0089925223       33.5159424534
N                26.2711136168       10.6378666473       32.8303272980
N                28.4292297819       11.4428373049       32.8706259040
H                23.6359746830       12.1508434777       36.8827263153
H                24.4143360137        9.8731269419       38.5979437672
H                26.0483281001       12.3215102056       37.7698168609
H                26.5041635084       11.2289369549       39.0807609655
H                27.7278090319       10.4411290813       37.2123545315
H                26.3924329343        9.3213606890       37.3857391237
H                25.7069356497        9.7594254661       35.2597312858
H                25.5167424775       11.4711611908       35.6527812214
H                28.1828226202       11.3062766436       35.3254658477
H                25.4381765617       10.2769723026       33.2786112670
H                26.2640212396       10.7057142307       31.8268830921
H                29.2532652245       11.7408489211       33.3660569370
H                28.4925243930       11.3880175117       31.8685590095
N                23.0858129344       17.5746692922       44.4983932348
C                23.5994442784       17.8212627039       43.1667783853
C                23.2571285049       16.6679611150       42.2259311170
O                23.3491708156       15.4952660641       42.5560880918
C                25.1379495253       17.9346882469       43.2024160948
C                25.7573097260       18.0924788673       41.8076088658
C                27.0690812996       18.8839820026       41.8182675281
C                28.0944416396       18.3602576944       42.8240602473
N                29.0587110088       19.4408290901       43.1652732578
H                23.1965298830       16.6239713512       44.8380947298
H                23.1589647650       18.7536666563       42.8048944957
H                25.3840051200       18.7854848722       43.8392464192
H                25.5067490715       17.0293339196       43.6863848516
H                25.9213395440       17.1066253170       41.3715000185
H                25.0579547139       18.6286832075       41.1646737511
H                27.4861884133       18.8697800089       40.8118936334
H                26.8426986106       19.9189710092       42.0694806283
H                27.5956739385       18.0623338942       43.7454262393
H                28.6346404524       17.5028856615       42.4224554483
H                29.6777380864       19.1568172158       43.9330690868
H                29.6340124513       19.6983925209       42.3537844948
H                28.5266623929       20.2954615684       43.4939515913
N                22.9339123939       17.0543876048       40.9812619448
C                22.9426524290       16.1146280369       39.8835273900
C                23.6856123879       16.6745313565       38.6688309263
O                23.7740727643       17.8711422215       38.4340878393
C                21.5212566597       15.7004906156       39.4441845901
C                21.1132432589       14.4315761285       40.1921953216
C                19.8741711992       13.7553874419       39.6361584363
O                19.9042298831       12.6253924124       39.1655547494
N                18.7507972413       14.4797808442       39.7168840248
H                22.8224153594       18.0397653691       40.7581515737
H                23.4777159236       15.2254459522       40.2315855701
H                20.8454957776       16.5310411194       39.6420724505
H                21.5177549442       15.4885364391       38.3745251821
H                21.9246353278       13.7179358828       40.0680602744
H                20.9909117188       14.6485511753       41.2544756899
H                18.7470377590       15.3824756710       40.1598291675
H                17.9016312604       14.1088088418       39.3215746557
N                24.1820770862       15.6974640988       37.9057782443
C                24.8485363132       15.8316791364       36.6275482026
C                24.1258205521       14.9252822812       35.6237110494
O                23.7515601401       13.8015969043       35.9340105649
C                26.3333910866       15.3934849502       36.7817863877
C                27.1368335117       16.5595263541       37.3738088560
C                26.9146716156       14.8903920730       35.4623449447
C                28.4840913222       16.1401625462       37.9548322378
H                24.0195413196       14.7370431092       38.1927206062
H                24.7940708189       16.8769481361       36.3107748843
H                26.3459953091       14.5672521058       37.5016691594
H                27.2883603782       17.3166114057       36.6023880221
H                26.5389235773       17.0112201780       38.1669820601
H                27.9717531884       14.6786901924       35.5833641347
H                26.4127605987       13.9790923089       35.1489202250
H                26.7942770381       15.6294808254       34.6746222575
H                28.9685285632       16.9954470788       38.4200572083
H                28.3501064779       15.3622268675       38.7033341914
H                29.1456703742       15.7671491614       37.1786708835
N                24.0092025050       15.4323478824       34.3900153077
C                23.3804112837       14.7076285158       33.3082278530
C                24.2463323971       14.6014036740       32.0420946390
O                24.5582575037       13.5318696354       31.5494993141
C                22.0465039444       15.3588912231       32.8710861732
C                21.0942677358       15.4523552619       34.0221014120
C                21.2316756730       16.5028328468       34.9160723754
C                20.1005150093       14.5102736527       34.2400640570
C                20.3976036718       16.6156955792       36.0072301289
C                19.2415441145       14.6249610757       35.3149463490
C                19.3862224689       15.6837792124       36.2013088063
O                18.5192004669       15.7999437027       37.2415919167
H                24.2657852821       16.4004718469       34.2305860960
H                23.1838366004       13.6993541677       33.6854085486
H                22.2478803386       16.3645193898       32.4999950909
H                21.6199719700       14.7691795707       32.0592847748
H                21.9984902212       17.2413742823       34.7471185583
H                19.9904039297       13.6857906148       33.5540067113
H                20.5292218517       17.4348127560       36.7000572617
H                18.4600549357       13.9024981527       35.4860670241
H                18.8273684099       16.5124428657       37.8198369917
N                24.5140407340       15.7901000395       31.4767640734
C                24.8810944863       15.9945415782       30.0814769759
C                26.3841229998       16.2780128360       30.0202450799
O                26.8247939753       17.2726737225       30.5801835085
C                24.0893262117       17.2254660167       29.5956325355
C                24.0974188867       17.4885339072       28.1145218567
C                25.0443109073       18.3149919337       27.5254039151
C                23.0785342975       16.9782459670       27.3186639559
C                24.9596392715       18.6436900575       26.1850683129
C                22.9850838064       17.2914499102       25.9796074860
C                23.9212470842       18.1466334222       25.4073402672
O                23.7668278224       18.4783384608       24.0967051584
H                24.3282263912       16.6339843021       32.0021845895
H                24.6117779974       15.0973352787       29.5194518922
H                23.0537878767       17.0878744129       29.9123439441
H                24.5046204781       18.0962962447       30.1077565833
H                25.8423907799       18.7366414101       28.1173657088
H                22.3270424923       16.3424600397       27.7570215401
H                25.6856746114       19.3123646771       25.7476009385
H                22.1753433497       16.9120074076       25.3758282756
H                24.4709360358       19.0793602639       23.8187758286
N                27.1482499575       15.3601597842       29.4125016158
C                28.5721591702       15.5467174914       29.2367177682
C                28.8734719717       15.8440194361       27.7726340634
O                28.2109609875       15.3676803724       26.8583106465
C                29.3751439605       14.2900234143       29.6634865796
O                29.0936887421       13.9699325134       31.0124575096
C                30.8760308849       14.5472347154       29.5519053660
H                26.7259554902       14.6202002889       28.8696261665
H                28.8698138631       16.3874351451       29.8710918967
H                29.0954617426       13.4557048964       29.0022255750
H                28.2421506632       13.5235725534       31.0588418564
H                31.4089623536       13.7020815674       29.9764772377
H                31.1672796615       14.6455204050       28.5110010620
H                31.1455019782       15.4504722716       30.0946172505
N                29.9125438369       16.6634233571       27.5888604535
C                30.5018277811       16.9051811218       26.2910901828
C                31.9939274178       16.5985121547       26.3930981549
O                32.6407591600       16.9370092468       27.3795991240
C                30.3268532548       18.3713325436       25.8384764759
C                30.7471926617       18.5108498293       24.3777044792
C                28.8807193043       18.8181936579       26.0318486942
H                30.3869595495       17.0662912207       28.3894219991
H                30.0161455752       16.2371015756       25.5738457037
H                30.9739769493       18.9926677868       26.4676385503
H                30.6266624175       19.5402989488       24.0544832303
H                31.7886532175       18.2297192379       24.2379397103
H                30.1334758756       17.8683144018       23.7503530400
H                28.7762715090       19.8577244182       25.7357211363
H                28.2164231322       18.2037182725       25.4299461068
H                28.5833858579       18.7197065049       27.0730705926
N                32.9867737988       19.1486894765       30.0797289214
C                32.0349917070       19.8972541600       30.8803487252
C                30.8022319593       19.0149400526       31.0899048189
O                30.5098380894       18.1296222727       30.2901974015
C                31.6859488602       21.2264806342       30.1554429026
C                31.0196501652       20.9681232596       28.8072353436
C                30.8294461071       22.1502940059       31.0133617089
H                32.5736850612       18.4720691210       29.4480273069
H                32.4889710179       20.1465414771       31.8443395082
H                32.6496216585       21.7175948707       29.9784410267
H                30.7895480404       21.9157461789       28.3265109632
H                31.6843190417       20.4019032001       28.1587343463
H                30.0942009290       20.4110548712       28.9332706813
H                30.7951713243       23.1362174161       30.5561619385
H                29.8156082055       21.7693151148       31.1049652048
H                31.2534901363       22.2532363549       32.0064156284
N                30.0862536907       19.2914266897       32.1841992198
C                28.8607515337       18.5968301328       32.5242759723
C                27.8723454529       19.6061183050       33.1052358473
O                28.2663623554       20.5057209892       33.8488471552
C                29.1110950897       17.4655522871       33.5277526315
H                30.4119086770       20.0122594388       32.8159034008
H                28.4574113021       18.1712609750       31.6026667381
H                28.1631535887       17.0473846870       33.8517333901
H                29.6911285339       16.6776765231       33.0527506653
H                29.6513639349       17.8317180225       34.3982360175
N                26.6009511115       19.4379606323       32.7349324046
C                25.5229864685       20.3115066163       33.1540239519
C                24.5781543484       19.5522384152       34.0999049707
O                24.4048424919       18.3423120982       33.9963376394
C                24.6748205151       20.8009575973       31.9734059239
C                25.3405929084       21.6523019315       30.9197515764
C                26.6925825294       21.9483249088       30.8612952856
C                24.5134499204       22.1425191207       29.9101229267
C                27.2083183634       22.7151248225       29.8271641803
C                25.0154771091       22.8926835223       28.8712353611
C                26.3756982565       23.1874412112       28.8229337322
O                26.8272930570       23.9423763846       27.7912877612
H                26.3831780585       18.6734100133       32.1038745702
H                25.9655472553       21.1587344016       33.6852072538
H                24.2563298390       19.9223686159       31.4730329857
H                23.8354804589       21.3682892704       32.3880378670
H                27.3764471467       21.5845396831       31.6107707362
H                23.4568032237       21.9258204747       29.9472999467
H                28.2660042465       22.9364793395       29.7963997270
H                24.3758483269       23.2445430288       28.0800201318
H                27.7813876780       24.0809310417       27.8577726887
N                23.9599422677       20.3123872383       35.0077864503
C                23.0729447182       19.7631444264       36.0123151003
C                22.3793810244       20.8582588368       36.8125830984
O                22.0342964365       21.9117339910       36.2921280083
H                24.1360424139       21.3095474445       35.0347518365
H                22.2849801534       19.1771829984       35.5221585174
H                23.6299857657       19.1003737519       36.6819617704
N                14.8045969028       14.1852374381       32.1690749262
C                15.7060660055       15.2190307660       31.6921719028
C                15.7421261288       15.2415382981       30.1481779616
O                16.6928561633       14.8344195394       29.5050566606
C                17.1042793399       14.9736868965       32.2701093965
C                17.8707574531       16.2476700028       32.4781725638
C                17.5653762131       17.0680797290       33.5558131776
C                18.8905085474       16.6159704745       31.6158630146
C                18.2833093511       18.2249730946       33.7793805368
C                19.6143918126       17.7728915442       31.8417408872
C                19.3206332086       18.5686242443       32.9324009775
H                15.2276205847       13.3008531313       32.4150234253
H                15.3078626239       16.1873779948       32.0201619388
H                16.9995973970       14.4642621660       33.2295362663
H                17.6449583974       14.3305017262       31.5749369139
H                16.7584417764       16.7883654038       34.2153967135
H                19.1086894246       15.9998476241       30.7571819149
H                18.0413944781       18.8759412603       34.6034804665
H                20.4076530603       18.0498100616       31.1633304589
H                19.8824426691       19.4675188843       33.1225099994
N                19.5863558174       22.1474409453       32.1893510754
C                20.7832720572       22.0448853668       32.9899475877
C                21.7015944522       23.2347766605       32.7034807558
O                21.6100250079       23.8727604312       31.6648124691
H                19.7274240205       22.5411773241       31.2678090157
H                20.5002407827       22.0199893083       34.0450527320
H                21.3278941684       21.1244414186       32.7412962353
N                22.6183842565       23.4580163233       33.6482296146
C                23.4622896731       24.6462378381       33.6480028766
C                24.8967114195       24.1598813425       33.8393505581
O                25.1258377091       23.1996182864       34.5756891681
C                22.9754812035       25.5494630487       34.8055804135
C                23.0599505712       27.0767661297       34.6399505511
C                24.4225111893       27.6542108764       35.0159859854
C                22.6134891211       27.5426523596       33.2521297642
H                22.5533171136       22.9627023682       34.5335951016
H                23.3234783374       25.1266354060       32.6774443637
H                21.9141553522       25.3162340528       34.9400303353
H                23.4818848541       25.2441584300       35.7252183317
H                22.3317229270       27.4713389883       35.3598967872
H                24.4114648350       28.7338953685       34.8871195406
H                24.6596917674       27.4320518265       36.0538887154
H                25.2183618830       27.2424569915       34.4054973463
H                22.3343660115       28.5928017361       33.2865178673
H                23.4049220782       27.4315020970       32.5155275621
H                21.7453702692       26.9747568288       32.9231904694
N                25.8899575003       24.7720355462       33.1891667369
C                27.2601831067       24.3525019446       33.4503425391
C                27.5188862909       24.2097252864       34.9482921899
O                27.3590505161       25.1372135668       35.7280637468
C                28.0914519957       25.4579644820       32.8030019519
C                27.2562065049       25.7947652179       31.5718726478
C                25.8192220476       25.7196616275       32.0882542192
H                27.4430199394       23.3849966780       32.9690806507
H                28.1555843793       26.3054237108       33.4878973232
H                29.0979774612       25.1167835548       32.5702193118
H                27.4940377779       26.7682657180       31.1568732433
H                27.4140701381       25.0280736944       30.8154460770
H                25.4864980106       26.6947619157       32.4478008194
H                25.1355721402       25.3446020619       31.3258558959
N                28.0111508876       23.0108497169       35.2936971329
C                28.4235961113       22.6546119657       36.6345673808
C                29.9536885143       22.5704910353       36.6922489212
O                30.6215218886       23.3329421083       37.3738172826
C                27.7988649258       21.3180589598       37.0827389237
C                26.2700422832       21.4148704636       37.1985174696
C                28.4386633882       20.8327273963       38.3823943252
C                25.7583062802       22.2846120402       38.3413479271
H                28.0410319252       22.2609542856       34.6127197505
H                28.1199903757       23.4756867467       37.2929652282
H                28.0081629219       20.5881804118       36.2925058710
H                25.8853254489       21.8246460559       36.2655913529
H                25.8808578965       20.4002565880       37.3141108029
H                27.9624298167       19.9051584062       38.6856982752
H                29.5009924261       20.6509041265       38.2457036629
H                28.3207547353       21.5789652167       39.1608833357
H                24.6708542006       22.2938550052       38.3248196500
H                26.0946600584       21.9075065494       39.3019382015
H                26.0932860637       23.3109086481       38.2116789719
H                33.4530893643       26.5659067460       26.4762647347
H                34.2648768664       23.7462215612       25.1129773825
H                28.9196224908       14.8587894748       22.1625794425
H                27.4358033515       12.2397488296       24.7312291500
H                24.7461716899       11.0942586202       25.3951999506
H                21.9901587872        8.4908964871       26.5447498390
H                28.8249825977       27.2868865022       21.5381194461
H                25.6701015044       27.2864589413       19.7982865468
H                26.4156982937       22.4905455773       19.5639932027
H                23.5285277012       23.2004965524       21.3174909628
H                21.8493924600       18.4465803669       20.9504862126
H                18.7170689303       19.7642359361       21.0771114151
H                21.8127182976       10.0051150751       33.7340612156
H                23.7770894142       11.3958418000       40.3871098874
H                23.5102249847       18.1066203712       45.0873774970
H                32.4570878516       16.1156483724       25.6499124578
H                33.4653966698       19.7173887281       29.5722830537
H                22.1959369429       20.7258101334       37.7866496310
H                14.3834802209       14.4725888811       32.9107553753
H                14.9628283880       15.6012263755       29.6350312786
H                19.2329559527       21.3282292457       32.0710264078
H                30.4365784460       21.8746003244       36.1606913681
