 172 
 
N                43.3307128814       29.2212791536       28.6047741346
C                43.7023297759       27.8296059721       28.4467786610
C                42.6394315945       27.0039616806       27.7185394364
O                42.9295325241       26.2327437135       26.8120740445
C                43.9941814531       27.2262370010       29.8342958102
C                45.2966106894       27.8193752852       30.3887198990
C                44.0564591235       25.7024765843       29.7769862437
C                45.3588891677       27.7649607798       31.9103463694
H                43.0286209296       29.5273580209       29.5243876276
H                44.5994620252       27.7868412063       27.8142399392
H                43.1672465484       27.5201040588       30.4891329210
H                46.1440736767       27.2844553169       29.9553665904
H                45.3689959056       28.8639445876       30.0807629445
H                44.4442365640       25.3093735789       30.7119394557
H                43.0657575885       25.2870048284       29.6139087973
H                44.7055929968       25.3811414066       28.9656007551
H                46.3016438107       28.1757073717       32.2621378003
H                44.5471217927       28.3554760146       32.3278909277
H                45.2679424917       26.7438494009       32.2691379079
N                41.3920376323       27.1484994350       28.1775520595
C                40.3427381628       26.2146141422       27.8525646680
C                39.3987677965       26.7041859935       26.7548840766
O                38.6366186498       25.9264694006       26.1903232578
C                39.5806686783       25.8627598516       29.1528095786
O                40.5707956386       25.6119862609       30.1313805369
C                38.6616099571       24.6627383015       28.9653843214
H                41.1716930336       27.8433350930       28.8834740729
H                40.8296419159       25.3083393978       27.4668976226
H                38.9996459263       26.7519663051       29.4486992178
H                40.1528094513       25.1819909741       30.8888618594
H                38.1302641306       24.4512018235       29.8908250729
H                37.9387415670       24.8697299932       28.1839336640
H                39.2546538108       23.7950831827       28.6892749970
N                39.4636953184       28.0050111904       26.4647519041
C                38.7132423907       28.6048382196       25.3797516987
C                39.6473230240       28.8659087013       24.1860913474
O                39.5312554706       28.2420824920       23.1354493240
C                38.0021145434       29.8903096000       25.8346591323
C                37.2077338822       30.4967186160       24.6805110995
C                37.0953052576       29.5955053046       27.0270515701
H                40.0736956154       28.6073599268       27.0028451504
H                37.9769126159       27.8630021628       25.0511013797
H                38.7674764082       30.6071245443       26.1442232290
H                36.8611149556       31.4904962086       24.9493264725
H                37.8228585997       30.5733647012       23.7876677196
H                36.3413296738       29.8865249430       24.4372353094
H                36.5763142635       30.5030414557       27.3223477058
H                36.3550976495       28.8440576250       26.7642878778
H                37.6799234988       29.2327159890       27.8696046496
N                40.5873277419       29.7884528914       24.4066711551
C                41.3994024223       30.4014350313       23.3738077265
C                42.0905771508       29.4115464799       22.4396822831
O                42.3318784895       29.7142990050       21.2796868770
C                42.4443951196       31.3045006875       24.0206751889
H                40.6615016849       30.2256952075       25.3197721697
H                40.7486643779       31.0051799984       22.7255549586
H                43.0591485049       31.7608217119       23.2503754755
H                41.9465693167       32.0787666323       24.6007046066
H                43.0799411170       30.7214382106       24.6831020181
N                42.4401747399       28.2302912669       22.9707532934
C                43.0565080258       27.2072342286       22.1606578167
C                42.3342888847       26.9374672214       20.8367609714
O                42.9567028436       26.5015653426       19.8774216272
H                42.2192604111       28.0105171750       23.9288355572
H                44.0832556127       27.4856674036       21.8999755287
H                43.0794122990       26.2738685172       22.7249094502
N                41.0106822495       27.1244530847       20.8380548257
C                40.1843769174       26.7944751263       19.6932610942
C                39.2928545131       27.9884038888       19.3543739178
O                38.4591824255       28.4072929392       20.1651009364
C                39.3215319241       25.5830722596       20.0465483693
C                38.0986071179       25.4267662305       19.1045794765
O                38.1399331596       26.0373780947       18.0143927657
O                37.1706179893       24.7128643208       19.5224003199
H                40.5248059229       27.5284714533       21.6344852880
H                40.8552214434       26.5652844211       18.8646605184
H                39.9178324692       24.6702587012       19.9960373950
H                38.9432984251       25.7066518505       21.0596814537
N                39.4732034796       28.6124012751       18.1895749535
C                38.7106248966       29.8175312453       17.9071607244
C                37.1984108926       29.6025646746       17.9285600506
O                36.4457003510       30.5446796002       18.1761477616
C                39.1913948970       30.2618364547       16.5205867190
C                39.6448124851       28.9554624637       15.8754320841
C                40.2544169585       28.1805181072       17.0426340997
H                38.9219497259       30.5721871922       18.6743280407
H                38.3989815068       30.7589101127       15.9652507925
H                40.0334361800       30.9442492357       16.6300019697
H                38.7871939805       28.4088626276       15.4842542654
H                40.3612720589       29.1139177505       15.0740886572
H                40.1573064463       27.1032649196       16.9062545811
H                41.3078412944       28.4377687296       17.1944661429
N                36.7461061186       28.3929749251       17.6031229968
C                35.3212234734       28.1257333750       17.6427417631
C                34.7731043527       28.2942778497       19.0567808722
O                33.6648377729       28.7808408645       19.2603673512
C                35.0591187659       26.7300307589       17.0757355067
C                33.5956541746       26.2772141672       17.0840704754
C                32.6683655707       27.2803750122       16.4020923127
C                33.5135523962       24.9212187151       16.3859374892
H                37.3652919954       27.5781421612       17.5928101281
H                34.8235092068       28.8878645170       17.0290592403
H                35.4280370565       26.7227824880       16.0475252376
H                35.6584416419       26.0138263486       17.6436259940
H                33.2766171999       26.1629320170       18.1255985201
H                31.6734521255       26.8557194577       16.2969033835
H                32.5845048111       28.1880268338       16.9928226411
H                33.0392024792       27.5315258998       15.4110663542
H                32.5057377549       24.5204323768       16.4432453714
H                33.7817889458       25.0214471059       15.3362882317
H                34.2001087001       24.2173915339       16.8498094194
N                35.5590739733       27.8850799733       20.0574211878
C                35.1511855919       28.1133821710       21.4274872282
C                34.9762723881       29.6071384011       21.6914609524
O                34.0333930217       30.0312269648       22.3493587818
C                36.1603784127       27.5513821608       22.4234472705
C                36.2145669810       26.0290581738       22.3867169690
C                37.3553569892       25.5040143427       23.2596838438
N                37.5894385508       24.1119120154       22.9417586309
C                37.6514889787       23.1052783018       23.8096195289
N                37.7410860784       23.3082934614       25.1173252348
N                37.6396959988       21.8515407565       23.3556130755
H                36.5213362110       27.6228105226       19.8920006510
H                34.1678012031       27.6466301293       21.5713755582
H                37.1460219159       27.9585810782       22.1885136175
H                35.8755215085       27.8878109364       23.4221448441
H                35.2659346124       25.6086967163       22.7231087300
H                36.3776528659       25.7012572703       21.3578911651
H                38.2590647120       26.0959224999       23.0744565430
H                37.1062103988       25.5978593335       24.3160291068
H                37.5507855806       23.9007720650       21.9517729484
H                37.9876619040       24.2087404577       25.5103184968
H                37.7282950330       22.4944264891       25.7159354865
H                37.4523072178       21.6545769785       22.3880330328
H                37.5785516379       21.1061696074       24.0416820929
N                35.9355421307       30.3926044972       21.2029819821
C                35.8554890968       31.8336462180       21.3477122739
C                34.4956084127       32.3086476125       20.8257624232
O                33.7897760064       33.0703549861       21.4781537144
C                37.0193619941       32.5311768013       20.6297905937
C                36.8364731215       34.0467007673       20.6756280315
C                38.3515393858       32.1432291070       21.2718750640
H                36.6961385470       29.9932807089       20.6714992975
H                35.8782668051       32.0800066498       22.4186229405
H                37.0102167168       32.2007322307       19.5867675879
H                37.6715046661       34.5354042603       20.1825925442
H                35.9196566987       34.3434514032       20.1729782126
H                36.7898660247       34.3934883384       21.7050601052
H                39.1685998869       32.6215752393       20.7376546841
H                38.3782353906       32.4745134178       22.3078757432
H                38.5127801720       31.0660547497       21.2414438381
N                34.1349834120       31.8327009289       19.6337187390
C                32.8647567675       32.2105239406       19.0400391851
C                31.7222028292       31.8840210776       20.0069520118
O                30.8810928501       32.7243674365       20.3118624937
C                32.6537434731       31.5211382788       17.6824678148
C                33.6880084427       32.0384883473       16.6740659593
C                31.2252234735       31.7569610206       17.1946352536
C                33.6138298777       31.3380362735       15.3209872012
H                34.7680821234       31.2441546981       19.1052013901
H                32.8461765149       33.3018303613       18.9052279989
H                32.8073977202       30.4481790188       17.8343080846
H                33.5432854069       33.1119319004       16.5346412695
H                34.6884099340       31.8880079019       17.0836020100
H                31.0524504062       31.2276210988       16.2636082590
H                30.5033663503       31.3986548625       17.9242635224
H                31.0517898867       32.8183466188       17.0330340859
H                34.4566964493       31.6388878891       14.7040921406
H                33.6518000666       30.2579770098       15.4449700011
H                32.6995777439       31.5936809098       14.7943826971
H                44.0336797698       29.7449627205       28.4008303299
H                31.6498170433       30.9694207501       20.4047792845
