470
Properties=species:S:1:pos:R:3 pbc="F F F"
N      53.28400000      25.66600000       9.68400000 
C      52.75000000      24.73400000      10.66200000 
C      53.86400000      23.90800000      11.33000000 
O      53.77800000      23.60200000      12.50300000 
C      51.68700000      23.84500000       9.97900000 
C      50.82600000      23.10800000      10.97000000 
O      50.98600000      21.86800000      11.15000000 
N      49.92100000      23.79200000      11.62800000 
H      53.11400000      25.52700000       8.73400000 
H      52.28800000      25.28500000      11.46100000 
H      51.05900000      24.49100000       9.38600000 
H      52.15700000      23.13700000       9.31200000 
H      49.33300000      23.36700000      12.29000000 
H      49.77300000      24.78400000      11.45600000 
N      54.93100000      23.87200000      15.33900000 
C      55.18300000      22.61000000      16.04300000 
C      56.47900000      22.62900000      16.80000000 
O      56.53100000      22.15300000      17.97000000 
C      55.19400000      21.44300000      15.04100000 
C      55.43400000      20.14100000      15.72600000 
O      54.58200000      19.66000000      16.52800000 
N      56.57900000      19.49500000      15.49300000 
H      54.77900000      23.86200000      14.37600000 
H      54.39900000      22.43100000      16.78300000 
H      54.22400000      21.39000000      14.54200000 
H      55.92800000      21.62900000      14.28300000 
H      56.78200000      18.64900000      15.92200000 
H      57.31500000      19.91400000      14.91800000 
N      37.26900000      23.62300000      23.15900000 
C      38.02200000      24.30700000      22.13500000 
C      38.39300000      25.73600000      22.43900000 
O      37.94300000      26.70100000      21.78500000 
H      37.69000000      22.81800000      23.60000000 
H      38.90900000      23.74300000      21.92800000 
H      37.42800000      24.34300000      21.21400000 
N      41.43500000      29.19700000      13.85500000 
C      41.87200000      27.81900000      13.85200000 
C      41.12600000      27.00600000      12.78100000 
O      40.27300000      27.53000000      12.02500000 
C      41.66100000      27.11900000      15.23500000 
C      41.75600000      28.05600000      16.43400000 
C      40.98600000      27.60800000      17.66200000 
N      41.63200000      26.55200000      18.47100000 
C      41.64300000      26.55300000      19.80500000 
N      42.18100000      25.53900000      20.45200000 
N      41.14800000      27.54000000      20.50600000 
H      40.47800000      29.29100000      14.10100000 
H      42.92200000      27.79300000      13.59800000 
H      40.68300000      26.66300000      15.24400000 
H      42.38500000      26.30700000      15.33200000 
H      42.80200000      28.24600000      16.70300000 
H      41.33700000      29.00300000      16.17100000 
H      40.82300000      28.46500000      18.27100000 
H      40.01600000      27.23700000      17.35600000 
H      41.97300000      25.75400000      18.01200000 
H      42.57900000      24.74900000      19.95800000 
H      42.20000000      25.51800000      21.44700000 
H      40.66300000      28.33400000      20.11700000 
H      41.21700000      27.52300000      21.49900000 
N      41.41700000      25.70300000      12.71900000 
C      40.75900000      24.73300000      11.85300000 
C      39.51400000      24.15800000      12.54200000 
O      39.33600000      24.23800000      13.73500000 
C      41.74400000      23.59300000      11.55100000 
H      42.07700000      25.32200000      13.35400000 
H      40.46100000      25.24100000      10.93900000 
H      41.30600000      22.84200000      10.91500000 
H      42.61500000      24.00900000      11.05800000 
H      42.06700000      23.13400000      12.47700000 
N      38.61000000      23.48100000      11.76300000 
C      37.44600000      22.88100000      12.37700000 
C      37.77400000      21.69000000      13.23700000 
O      38.79700000      21.01600000      13.13600000 
C      36.58100000      22.45400000      11.16400000 
C      37.60500000      22.26800000      10.03300000 
C      38.59600000      23.36200000      10.28600000 
H      36.92400000      23.60700000      12.97600000 
H      35.99100000      21.57000000      11.35800000 
H      35.89300000      23.25200000      10.90900000 
H      38.08700000      21.29200000      10.13000000 
H      37.15900000      22.32500000       9.04500000 
H      39.58100000      23.14500000       9.89200000 
H      38.28400000      24.30900000       9.85100000 
N      36.80800000      21.39500000      14.15900000 
C      36.94200000      20.40600000      15.19500000 
C      35.68400000      19.53400000      15.29700000 
O      34.61500000      19.89000000      14.74400000 
C      37.21300000      21.08700000      16.57600000 
C      38.61800000      20.95400000      17.06400000 
S      38.93900000      22.21700000      18.43700000 
C      39.92500000      21.23100000      19.69700000 
H      35.99000000      21.98000000      14.19500000 
H      37.76300000      19.74900000      14.94200000 
H      36.94900000      22.13100000      16.45300000 
H      36.53500000      20.69000000      17.32400000 
H      38.80700000      19.95700000      17.48800000 
H      39.36100000      21.12200000      16.28300000 
H      40.11300000      21.88800000      20.51600000 
H      39.33800000      20.38000000      20.02800000 
H      40.84600000      20.90200000      19.26000000 
N      35.76300000      18.43600000      16.02400000 
C      34.68900000      17.51000000      16.26800000 
C      34.50900000      17.31300000      17.76000000 
O      35.48800000      17.14500000      18.51900000 
C      34.93300000      16.17500000      15.53900000 
O      36.23100000      15.66600000      15.93700000 
C      34.93400000      16.35800000      14.03700000 
H      36.66100000      18.17400000      16.39800000 
H      33.80100000      17.95600000      15.86600000 
H      34.15200000      15.48800000      15.82700000 
H      36.21100000      14.82400000      16.38000000 
H      35.07700000      15.39900000      13.55200000 
H      34.02400000      16.80300000      13.68400000 
H      35.77900000      16.99600000      13.74700000 
N      33.24100000      17.34300000      18.21600000 
C      32.86200000      17.19800000      19.61100000 
C      31.77500000      16.13900000      19.67100000 
O      30.91300000      16.05500000      18.78300000 
C      32.31100000      18.52900000      20.19600000 
C      33.16800000      19.73300000      19.90600000 
C      34.55000000      19.70400000      20.06000000 
C      32.59200000      20.93700000      19.48200000 
C      35.32700000      20.79900000      19.78000000 
C      33.37500000      22.03800000      19.21100000 
C      34.74200000      21.95700000      19.35400000 
O      35.49000000      23.11900000      19.08600000 
H      32.50900000      17.47300000      17.56200000 
H      33.72300000      16.88300000      20.16800000 
H      31.30500000      18.69800000      19.78600000 
H      32.18100000      18.38500000      21.25700000 
H      35.02600000      18.78900000      20.38600000 
H      31.52900000      20.99900000      19.36700000 
H      36.40600000      20.74500000      19.90100000 
H      32.93200000      22.97400000      18.91700000 
H      36.41700000      23.00000000      19.12400000 
N      30.68700000      18.80400000      12.58900000 
C      31.86900000      19.63400000      12.38100000 
C      31.49100000      21.02300000      12.98100000 
O      30.39100000      21.48700000      12.72100000 
C      32.25400000      19.81300000      10.90200000 
C      33.11100000      18.70400000      10.32100000 
C      32.39400000      17.46300000       9.85600000 
O      31.17000000      17.45000000       9.62400000 
N      33.15700000      16.37000000       9.65600000 
H      29.81500000      19.27200000      12.51800000 
H      32.68300000      19.21800000      12.92800000 
H      31.35900000      19.95600000      10.30500000 
H      32.83500000      20.74000000      10.82000000 
H      33.63700000      19.07800000       9.44800000 
H      33.89000000      18.41400000      11.02500000 
H      34.12900000      16.38200000       9.84600000 
H      32.74700000      15.54600000       9.30300000 
N      32.40400000      21.57900000      13.74400000 
C      32.09100000      22.75900000      14.55300000 
C      33.23800000      23.76800000      14.40800000 
O      34.42200000      23.38400000      14.30700000 
C      31.88300000      22.37600000      16.04300000 
C      31.35700000      23.57500000      16.84600000 
C      30.89700000      21.20700000      16.14200000 
H      33.26200000      21.09900000      13.96000000 
H      31.19200000      23.19600000      14.15200000 
H      32.84100000      22.05200000      16.43800000 
H      31.08100000      23.24800000      17.84300000 
H      32.09500000      24.34900000      16.93200000 
H      30.46700000      23.99000000      16.37300000 
H      30.71400000      20.96800000      17.18400000 
H      29.93700000      21.44400000      15.68600000 
H      31.28100000      20.29700000      15.68000000 
N      32.89400000      25.05000000      14.41000000 
C      33.84100000      26.13700000      14.30300000 
C      34.31200000      26.57000000      15.67900000 
O      34.01200000      25.93000000      16.73000000 
C      33.27500000      27.28300000      13.45500000 
C      32.86700000      26.82000000      12.05900000 
C      32.42900000      27.95000000      11.11900000 
O      32.61700000      29.15400000      11.48500000 
O      31.94000000      27.59300000      10.01200000 
H      31.93300000      25.31000000      14.58200000 
H      34.73500000      25.74100000      13.80600000 
H      32.43500000      27.73800000      13.96600000 
H      34.03300000      28.06200000      13.34700000 
H      33.65800000      26.29300000      11.58700000 
H      32.02000000      26.12800000      12.11800000 
N      35.13300000      27.64800000      15.74100000 
C      36.09100000      27.85900000      16.78700000 
C      36.08400000      29.28500000      17.40900000 
O      37.17100000      29.90600000      17.44900000 
C      37.48000000      27.57100000      16.21000000 
C      37.84900000      28.55700000      15.09900000 
O      36.95500000      28.98100000      14.33500000 
O      39.08300000      28.84700000      15.00500000 
H      35.40400000      28.09500000      14.88000000 
H      35.88400000      27.16800000      17.59400000 
H      38.22300000      27.64700000      16.99500000 
H      37.49000000      26.58000000      15.82700000 
N      34.98900000      29.79300000      17.91900000 
C      34.89500000      31.17000000      18.36900000 
C      34.67600000      31.24200000      19.88100000 
O      34.90100000      30.26200000      20.61500000 
C      33.68300000      31.65100000      17.57900000 
C      32.74400000      30.44000000      17.60100000 
C      33.62900000      29.22400000      17.92200000 
H      35.81100000      31.70700000      18.12900000 
H      33.21300000      32.55100000      17.95900000 
H      33.99900000      31.86500000      16.57200000 
H      32.00400000      30.54500000      18.36100000 
H      32.24400000      30.32700000      16.63500000 
H      33.41200000      28.79700000      18.87800000 
H      33.54800000      28.44700000      17.17000000 
N      29.47900000      29.36800000      17.42300000 
C      29.37600000      27.96200000      17.02100000 
C      29.43300000      27.03100000      18.21100000 
O      28.74500000      25.96600000      18.17400000 
C      30.46800000      27.65200000      15.98400000 
O      30.23600000      26.38300000      15.33900000 
H      30.30200000      29.85500000      17.13700000 
H      28.39400000      27.81100000      16.57200000 
H      30.48400000      28.44100000      15.26800000 
H      31.40800000      27.56800000      16.45800000 
H      29.50700000      26.40500000      14.71500000 
N      35.75300000      16.31500000      23.97200000 
C      36.51100000      16.83800000      22.87100000 
C      37.34600000      15.74600000      22.25100000 
O      37.82400000      14.83100000      22.95700000 
C      37.37400000      18.04900000      23.38700000 
C      38.62400000      17.59700000      24.16700000 
C      37.75900000      18.98800000      22.23700000 
H      36.19900000      16.22600000      24.85500000 
H      35.80200000      17.22100000      22.14300000 
H      36.72900000      18.57700000      24.04100000 
H      39.11700000      18.50400000      24.55000000 
H      38.37800000      16.97400000      25.01600000 
H      39.32800000      17.08200000      23.54500000 
H      38.26100000      19.85400000      22.63800000 
H      38.43000000      18.50900000      21.52500000 
H      36.87800000      19.32400000      21.70800000 
N      37.58000000      15.79100000      20.94400000 
C      38.51000000      14.88300000      20.31200000 
C      39.93700000      15.34400000      20.61500000 
O      40.24000000      16.53300000      20.54200000 
C      38.24900000      14.78900000      18.80600000 
C      38.60200000      13.46300000      18.17000000 
O      39.24800000      12.61700000      18.86500000 
O      38.23000000      13.30000000      16.96800000 
H      37.16400000      16.50800000      20.38100000 
H      38.35900000      13.89800000      20.74100000 
H      37.18300000      14.95300000      18.63600000 
H      38.74900000      15.58600000      18.27100000 
N      40.81800000      14.43200000      21.00600000 
C      42.15200000      14.79800000      21.44400000 
C      42.96700000      15.29800000      20.25100000 
O      42.86600000      14.80900000      19.12600000 
C      42.84200000      13.64100000      22.14300000 
H      40.58400000      13.44900000      20.94000000 
H      42.05000000      15.62200000      22.13400000 
H      43.81300000      13.92800000      22.50500000 
H      42.23900000      13.33500000      23.00900000 
H      42.94900000      12.78000000      21.48700000 
N      43.81400000      16.31300000      20.52700000 
C      44.48100000      17.09500000      19.48300000 
C      45.92500000      16.62400000      19.33200000 
O      46.73300000      16.68900000      20.23900000 
C      44.44300000      18.58700000      19.86700000 
C      45.29600000      19.39400000      18.88400000 
C      43.00100000      19.10600000      19.91300000 
H      43.83500000      16.68300000      21.45600000 
H      43.93800000      16.94100000      18.56200000 
H      44.87800000      18.66800000      20.86900000 
H      45.17000000      20.45600000      19.06400000 
H      46.35400000      19.17600000      18.99100000 
H      45.00900000      19.19000000      17.86300000 
H      43.00300000      20.12100000      20.28600000 
H      42.57500000      19.11100000      18.91400000 
H      42.37800000      18.51400000      20.55100000 
N      46.25700000      16.15800000      18.10100000 
C      47.55000000      15.55500000      17.82800000 
C      48.66900000      16.54900000      17.60100000 
O      49.85600000      16.16600000      17.82300000 
C      47.43900000      14.61200000      16.60800000 
C      47.41700000      13.11000000      16.90900000 
C      46.14000000      12.54800000      17.55800000 
C      45.90600000      12.78300000      19.05500000 
N      46.94900000      12.08400000      19.91200000 
H      45.56400000      16.12800000      17.39300000 
H      47.85700000      14.99700000      18.69000000 
H      46.57700000      14.89200000      16.01300000 
H      48.30400000      14.79500000      15.94900000 
H      47.52900000      12.60200000      15.95900000 
H      48.29800000      12.85500000      17.48400000 
H      45.27800000      12.94200000      17.04900000 
H      46.12900000      11.47800000      17.39200000 
H      45.92700000      13.81600000      19.32500000 
H      44.95800000      12.37300000      19.34300000 
H      46.74100000      12.25200000      20.88800000 
H      46.95100000      11.11300000      19.76300000 
H      47.87400000      12.45000000      19.75000000 
N      48.38600000      17.75400000      17.09300000 
C      49.41100000      18.67500000      16.62600000 
C      48.82700000      20.06900000      16.67900000 
O      47.66800000      20.24900000      17.07200000 
C      49.85700000      18.28200000      15.18800000 
C      50.98500000      17.26100000      15.18100000 
O      51.99400000      17.46000000      15.80100000 
N      50.76800000      16.16200000      14.43400000 
H      47.45400000      18.03800000      16.99500000 
H      50.26800000      18.62800000      17.27200000 
H      48.99200000      17.95000000      14.63500000 
H      50.25200000      19.14300000      14.64900000 
H      51.49700000      15.48300000      14.38300000 
H      49.93700000      15.99200000      13.93900000 
N      49.55500000      21.13200000      16.27200000 
C      48.97500000      22.49800000      16.34700000 
C      47.87800000      22.74600000      15.34400000 
O      47.34000000      23.89300000      15.34500000 
C      50.19000000      23.42100000      16.12100000 
C      51.40900000      22.56800000      16.41900000 
C      50.99900000      21.17500000      15.96000000 
H      48.55900000      22.64700000      17.32100000 
H      50.22100000      23.76400000      15.09300000 
H      50.12100000      24.30000000      16.74000000 
H      52.29600000      22.91800000      15.93200000 
H      51.59900000      22.54000000      17.50100000 
H      51.15000000      21.07200000      14.90000000 
H      51.52200000      20.38900000      16.45600000 
N      47.47500000      21.79100000      14.53500000 
C      46.42300000      21.99400000      13.54200000 
C      45.03600000      22.30700000      14.07900000 
O      44.24100000      22.83700000      13.30000000 
H      47.89900000      20.91500000      14.55000000 
H      46.68600000      22.81900000      12.88900000 
H      46.36700000      21.11000000      12.94200000 
N      44.74300000      22.01400000      15.34900000 
C      43.46000000      22.39700000      15.96400000 
C      43.62100000      23.62300000      16.86500000 
O      42.68700000      23.99800000      17.56500000 
C      42.82700000      21.23800000      16.70900000 
C      42.40100000      20.11500000      15.80100000 
O      42.01400000      20.40400000      14.63100000 
O      42.41700000      18.92500000      16.30600000 
H      45.37200000      21.47300000      15.89000000 
H      42.80500000      22.69500000      15.15800000 
H      43.50200000      20.87300000      17.46700000 
H      41.95800000      21.61400000      17.22100000 
N      44.78600000      24.26200000      16.79800000 
C      45.11300000      25.43800000      17.57100000 
C      45.26200000      26.67400000      16.68700000 
O      44.90500000      27.77900000      17.11000000 
C      46.36500000      25.25400000      18.47000000 
C      46.46100000      26.38700000      19.48100000 
C      46.30100000      23.91300000      19.18100000 
H      45.48900000      23.85700000      16.19700000 
H      44.26900000      25.64500000      18.21900000 
H      47.24600000      25.27500000      17.83500000 
H      47.34900000      26.25300000      20.11700000 
H      46.52500000      27.35800000      19.04000000 
H      45.58500000      26.37900000      20.15300000 
H      47.15200000      23.83400000      19.85000000 
H      45.40200000      23.82800000      19.77800000 
H      46.34100000      23.07900000      18.50700000 
N      45.82800000      26.48400000      15.48900000 
C      46.05500000      27.56500000      14.53700000 
C      45.66600000      27.04200000      13.16700000 
O      45.56700000      25.86300000      12.92900000 
C      47.54600000      27.98900000      14.52700000 
C      48.09300000      28.31200000      15.89400000 
C      47.72900000      29.51800000      16.51300000 
C      48.93900000      27.44700000      16.55100000 
C      48.20200000      29.82600000      17.79400000 
C      49.42200000      27.76300000      17.82700000 
C      49.05500000      28.92000000      18.45700000 
H      46.14200000      25.58800000      15.21900000 
H      45.43700000      28.41000000      14.81600000 
H      48.13500000      27.17000000      14.09600000 
H      47.63900000      28.84200000      13.87300000 
H      47.09000000      30.20300000      16.01300000 
H      49.22500000      26.52500000      16.08300000 
H      47.90300000      30.73400000      18.26700000 
H      50.09500000      27.06400000      18.32200000 
H      49.40700000      29.15900000      19.42900000 
N      45.44900000      27.98600000      12.21200000 
C      44.97900000      27.66700000      10.88600000 
C      46.18200000      27.42600000       9.93300000 
O      47.13300000      26.72500000      10.31000000 
C      43.96000000      28.72300000      10.40200000 
C      42.96700000      28.19700000       9.38500000 
C      42.15600000      29.28400000       8.75500000 
O      41.76100000      30.27200000       9.43200000 
N      41.89100000      29.19400000       7.44800000 
H      45.44500000      28.95300000      12.47500000 
H      44.48700000      26.69800000      10.93700000 
H      43.41300000      29.04100000      11.28800000 
H      44.48000000      29.59800000      10.04700000 
H      43.44100000      27.60600000       8.60800000 
H      42.26700000      27.52800000       9.87000000 
H      42.22400000      28.43300000       6.90000000 
H      41.32700000      29.89600000       6.99900000 
N      43.57700000      24.08500000      26.75800000 
C      42.31700000      23.98400000      25.99100000 
C      41.27000000      23.26200000      26.81800000 
O      41.54900000      22.23800000      27.47800000 
C      42.55600000      23.36500000      24.58000000 
C      42.54500000      21.86500000      24.37700000 
C      43.56900000      21.04300000      24.86700000 
C      41.56500000      21.29500000      23.62000000 
C      43.56400000      19.67900000      24.63100000 
C      41.54600000      19.90500000      23.35500000 
C      42.55500000      19.10800000      23.88200000 
O      42.51800000      17.75000000      23.59800000 
H      43.98700000      23.24900000      27.08700000 
H      41.99300000      24.98300000      25.82700000 
H      41.81900000      23.79500000      23.92900000 
H      43.51600000      23.78100000      24.24900000 
H      44.36300000      21.45500000      25.45400000 
H      40.77500000      21.88800000      23.20300000 
H      44.35200000      19.05700000      25.00700000 
H      40.78100000      19.47400000      22.76300000 
H      42.64300000      17.19000000      24.32400000 
N      47.63300000      22.01900000      25.96100000 
C      47.95300000      21.73000000      24.58200000 
C      49.42700000      21.97400000      24.36000000 
O      49.88000000      23.14500000      24.39300000 
C      47.09000000      22.60800000      23.65600000 
C      46.98400000      22.10700000      22.20400000 
C      48.31400000      22.03700000      21.44700000 
C      46.22200000      20.78800000      22.09900000 
H      47.54000000      22.96400000      26.24800000 
H      47.71900000      20.70400000      24.42000000 
H      46.11200000      22.66200000      24.06900000 
H      47.50300000      23.62800000      23.66200000 
H      46.38600000      22.84400000      21.70300000 
H      48.14000000      21.80300000      20.39500000 
H      48.87600000      22.95800000      21.50400000 
H      48.95000000      21.23100000      21.83200000 
H      46.17700000      20.47800000      21.06800000 
H      46.73500000      19.98100000      22.65300000 
H      45.22400000      20.87500000      22.48900000 
N      50.16700000      16.69900000      25.30600000 
C      49.07600000      15.77000000      25.57400000 
C      49.21900000      14.99700000      26.90700000 
O      48.55000000      13.97200000      27.05900000 
C      48.77400000      14.81100000      24.40200000 
C      47.80400000      15.38700000      23.36000000 
O      46.82500000      14.70500000      23.02100000 
N      48.07800000      16.55600000      22.84100000 
H      49.95100000      17.64800000      25.27900000 
H      48.21300000      16.40000000      25.74700000 
H      49.66700000      14.53200000      23.91100000 
H      48.30600000      13.92500000      24.78400000 
H      47.51500000      16.89100000      22.06700000 
H      48.89900000      17.07900000      23.06700000 
H      52.95807983      26.48941834       9.84449386 
H      54.66125520      23.62167754      10.79858341 
H      54.19288655      24.26164042      15.67570295 
H      57.29848446      23.01751704      16.37869284 
H      37.09254766      24.19254118      23.83315682 
H      39.02204515      25.94055305      23.18897350 
H      41.92141936      29.66513239      14.45018759 
H      31.74619895      15.49479053      20.43530665 
H      30.67044185      18.14567252      11.97554197 
H      34.34569206      32.08845313      20.29862874 
H      28.78829304      29.83048321      17.07798814 
H      30.00273582      27.26197408      18.99970278 
H      35.04246993      16.84537554      24.12643057 
H      46.18691174      27.83529998       9.02061335 
H      44.20970385      24.47043178      26.24699298 
H      40.33050232      23.60356909      26.84397428 
H      46.84319001      21.64228468      26.17144178 
H      50.04082272      21.20373906      24.18702670 
H      50.79605446      16.61580465      25.94425467 
H      49.84048602      15.33211691      27.61513261 
