 260 
 
N                19.0399882438       23.7720966838       78.9873864506
C                18.4066473069       24.4781750278       80.0835129138
C                19.3642995472       24.4315397218       81.2739807871
O                20.1517291515       23.5093573274       81.4337909028
C                17.0639734639       23.8354371127       80.4831023702
C                15.9026020745       24.4940569619       79.7388558666
C                14.5665512678       23.8287568933       80.0253682505
O                14.2738386996       23.3282001383       81.1006006115
N                13.7060757738       23.8472546866       79.0010055686
H                19.6458106645       23.0205192810       79.3007811348
H                18.2510665493       25.5187776556       79.7840063485
H                17.1051868494       22.7693977142       80.2575536643
H                16.9249580102       23.9490162612       81.5575052505
H                15.8328114003       25.5371198290       80.0632436189
H                16.1095525414       24.4888250865       78.6676693316
H                13.9290538917       24.2993195907       78.1320536667
H                12.7862405156       23.4498356710       79.1117933066
N                16.6734214767       31.1523359909       85.7154811210
C                16.7462277287       30.1435034360       84.6835342217
C                17.2796800058       30.7170105821       83.3666395077
O                17.2102214417       31.9077063356       83.0710019175
C                15.3776020618       29.4542378436       84.4633443478
C                14.8482826497       28.8976152676       85.7845188335
C                14.3581129882       30.4083230900       83.8451857574
H                16.2505956260       32.0351502015       85.4601992973
H                17.4733394321       29.4013304982       85.0326764018
H                15.5625807332       28.6367895560       83.7599777711
H                13.9073534941       28.3862331929       85.6099829865
H                15.5694413039       28.2168671299       86.2241032727
H                14.6808440614       29.7086610919       86.4879552982
H                13.4188963046       29.8966057986       83.6532784610
H                14.1586494536       31.2455142705       84.5110182783
H                14.7106672002       30.8174495367       82.8985506514
N                17.7745322515       29.7621016204       82.5672212786
C                18.4255414169       30.0108194528       81.3048336436
C                18.0585198427       28.9366727916       80.2903059456
O                17.9684538584       27.7520854724       80.5942015698
C                19.9620993490       29.9221510282       81.4582331691
C                20.5409857484       31.1736099182       82.0196328742
N                21.3147274601       31.1884186492       83.1434636535
C                20.4330745802       32.4452213938       81.5217361614
C                21.6609459819       32.4394931973       83.3124963869
N                21.1576746619       33.2434797004       82.3550255784
H                17.9468014536       28.8355089912       82.9549278046
H                18.1389273629       31.0020368787       80.9441216792
H                20.2056104009       29.0905026905       82.1210720353
H                20.4080986516       29.7221472435       80.4792779492
H                19.9092009636       32.8330934831       80.6715520463
H                22.2877318165       32.7934468341       84.1051939424
H                21.2090987070       34.2574582931       82.2863270388
N                17.9442208047       29.3778873411       79.0335566717
C                17.8145203133       28.4470290852       77.9378022886
C                18.5448301780       28.9933163106       76.7164812197
O                18.4710867884       30.1759629455       76.4058316042
C                16.3364276798       28.1680973632       77.5584456758
O                15.6487711184       29.2886397051       77.0727196883
H                17.9126902472       30.3734128946       78.8420549396
H                18.2535406454       27.5055411369       78.2834842552
H                16.3086507799       27.3473195566       76.8297869767
H                15.8062203918       27.8672253874       78.4630536454
H                16.0161461324       29.5470880127       76.2183499068
N                19.2138937618       28.0716926866       76.0251556149
C                19.7896943755       28.3118747944       74.7253534947
C                19.5020261958       27.1175684305       73.8331527750
O                19.4072223577       25.9829074435       74.2904666458
H                19.1871333543       27.1051734987       76.3355466786
H                19.3822428287       29.2314900790       74.2965296358
H                20.8803535579       28.3974249168       74.8186527900
N                18.2101929762       30.8254429611       70.0640308235
C                17.3112551270       31.4435741975       71.0103494829
C                17.9696956894       31.4372623285       72.3842954839
O                18.6949501494       30.5017251856       72.7161643024
C                15.9630027333       30.6900094278       71.1168366519
O                15.0605108139       31.3627597355       71.9468327104
H                18.7335005328       30.0207573562       70.3945505753
H                17.0926470399       32.4625695106       70.6815358624
H                15.5595320945       30.5491034810       70.1051979524
H                16.1316240913       29.6989370368       71.5576013110
H                14.6387855494       32.0790565113       71.4215738309
N                17.6980409970       32.4932331557       73.1437964037
C                18.2519590212       32.6780727373       74.4658903519
C                17.1969879991       33.3532745290       75.3406364738
O                16.6735471650       34.4097218604       75.0031042733
C                19.5200967745       33.5471531753       74.3916556138
C                20.2799130406       33.5330798747       75.7167050816
C                21.4612553108       34.5069595509       75.7450480771
C                22.5277096435       34.1726379175       74.7039461952
N                23.6980521884       35.0821733633       74.8618730543
H                17.1433480061       33.2473127081       72.7600541262
H                18.5064595349       31.6930317658       74.8629288092
H                20.1321328500       33.1372516189       73.5875516928
H                19.2164564028       34.5625303115       74.1278900896
H                19.5853221784       33.8035378956       76.5157615415
H                20.6159100889       32.5156206406       75.9197869241
H                21.0797726790       35.5145514594       75.5732820224
H                21.8911848578       34.4641256834       76.7471150631
H                22.8584856261       33.1419907925       74.8305473248
H                22.1211950504       34.2943362882       73.6998689361
H                24.3767658826       34.9319560017       74.1007470714
H                23.3816879852       36.0638480082       74.8399784209
H                24.1621589272       34.9130905507       75.7675872204
N                16.9391989464       32.7213395710       76.4906951297
C                16.0978719643       33.2650625769       77.5324983570
C                16.9100664000       33.3406695807       78.8270057609
O                17.6083036037       32.3980376701       79.1876483920
C                14.8535064713       32.4078908225       77.8063652099
O                13.9087087856       32.6358439814       76.7878592260
H                17.4145727754       31.8460703605       76.6949558637
H                15.7751193847       34.2604069819       77.2174750539
H                15.1428802913       31.3508215884       77.8468247616
H                14.4387056271       32.6921701736       78.7859022814
H                13.1506332123       32.0601017149       76.9469009407
N                16.7987832449       34.4896831975       79.4914474679
C                17.4914655205       34.7742935060       80.7346906986
C                16.4941229798       35.5096657397       81.6328374897
O                16.0126111820       36.5846718535       81.2795938053
C                18.7079239538       35.6559851283       80.4876710863
C                19.3532346322       36.0240950405       81.8611246233
O                18.5674211740       36.3386702853       82.7699781559
O                20.5983174441       35.9702636835       81.9213186976
H                16.2498146326       35.2477163995       79.1008121803
H                17.7887095106       33.8241379482       81.1897814536
H                19.4372934324       35.1584261809       79.8461779854
H                18.3731949211       36.5892854069       80.0286706454
N                16.0614536927       34.7987920478       82.6735680504
C                15.0281575202       35.2572623796       83.5759815986
C                15.5286862006       35.1241138124       85.0094450850
O                15.8849090610       34.0419343260       85.4652327497
C                13.7629099316       34.4143246427       83.3554481261
C                13.0557216709       34.8430775631       82.0739773294
C                12.1603654492       33.7025127860       81.5197669937
O                12.7248593219       32.7065286238       81.0569711681
O                10.9136424139       33.8749745222       81.5704992479
H                16.4843861644       33.9049211425       82.8904868192
H                14.8317702945       36.3069711734       83.3444880117
H                14.0587423804       33.3661482268       83.2747894161
H                13.0982202680       34.5171563445       84.2142141110
H                12.4802725864       35.7471418646       82.2711108943
H                13.8061749556       35.0515287607       81.3070983739
N                13.7589349482       40.2616178090       85.8680765486
C                14.5705877007       40.5301480059       84.7030759494
C                14.1290222982       39.5504003976       83.6189242218
O                14.1239475362       38.3424127464       83.8239219089
C                16.0797615186       40.3196648369       85.0017612734
C                16.8808873735       41.5510224784       84.7493072646
C                17.0609346897       42.6029190996       85.6032128420
C                17.5958586422       41.8694340347       83.5539572055
N                17.8452952603       43.5555055561       85.0175998572
C                18.1980032673       43.1350710361       83.7681519268
C                17.7970817210       41.2088385240       82.3400808735
C                18.9977091754       43.7388543049       82.8041508052
C                18.5948527900       41.8123975778       81.3937809096
C                19.1873524896       43.0596657874       81.6207145688
H                13.8641668167       39.3316165530       86.2619955599
H                14.3848746013       41.5657266687       84.4062816475
H                16.1747676344       40.0203208972       86.0473102767
H                16.4594426825       39.4992041780       84.3868721717
H                16.6722398016       42.7312373205       86.5955094419
H                18.1280903423       44.4218920120       85.4428290911
H                17.3471970182       40.2386668176       82.1612768177
H                19.4582081231       44.6994676603       82.9800297013
H                18.7808197517       41.3260253436       80.4465881823
H                19.8081215138       43.4853977905       80.8458494861
N                13.7006794006       40.1164495538       82.4862199697
C                13.3385431416       39.3749315977       81.2959497841
C                14.2816335595       39.7837883923       80.1633186056
O                14.4724120857       40.9528570552       79.8731117730
C                11.9013098422       39.7212449289       80.8533952567
C                10.8444828486       38.7345136733       81.3517415127
C                10.7821703847       37.4834391680       80.4676582989
C                 9.4779401119       36.7086736664       80.6180046770
N                 9.4151661343       35.9845313816       81.9101008441
H                13.8108634852       41.1120082337       82.3454782126
H                13.4529140095       38.3128294706       81.5232845839
H                11.6861226759       40.7258227828       81.2175185723
H                11.8678797674       39.7627127957       79.7633333440
H                11.0690928130       38.4811086775       82.3891183284
H                 9.8772206693       39.2379105259       81.3145317840
H                10.8643067366       37.7924289299       79.4256894679
H                11.6251371003       36.8222277462       80.6668756920
H                 8.6342129028       37.3963659832       80.5430766934
H                 9.4076122032       35.9665568047       79.8234110595
H                 8.4758620289       35.6052766216       82.0610352116
H                10.1070060241       35.1347008649       81.8712929711
H                 9.6604651092       36.6038655053       82.6873876406
N                14.7603581003       38.7471946943       79.4570244217
C                15.5932674847       38.9323502132       78.2886914638
C                15.3884567857       37.6914928828       77.4122753531
O                15.5141874894       36.5569317536       77.8610040822
C                17.0634170444       39.1296122904       78.6788584601
C                17.9986527618       39.1474987836       77.4680709693
C                19.3988510390       39.4833505343       77.9552262424
O                19.8263141243       40.6240308189       78.0055995473
N                20.1435465992       38.4153010231       78.3031220868
H                14.8245053303       37.8330084001       79.8866522712
H                15.2358554189       39.8313027375       77.7771638003
H                17.1389181496       40.0758656436       79.2193357850
H                17.3419128928       38.3320547119       79.3712383276
H                17.9793571155       38.1795055449       76.9642807601
H                17.6781450409       39.9251241958       76.7754529114
H                19.7099090071       37.5166263756       78.4356103431
H                21.0062968817       38.5800830715       78.7988225457
N                15.0258821263       37.9757492097       76.1651707011
C                14.7233287966       37.0234079252       75.1168966512
C                15.3962823084       37.5740299954       73.8608778918
O                15.3518728885       38.7708714356       73.5937076685
C                13.1927005082       36.8923873449       74.9275043409
C                12.8596703857       36.0032419845       73.7248963909
C                12.5508354039       38.2731557549       74.7790342875
C                13.2336379786       34.5387087503       73.9200370404
H                14.9946598194       38.9347965069       75.8411727789
H                15.1523627288       36.0583605333       75.3875643786
H                12.8013776028       36.4084308507       75.8303923346
H                11.7839872462       36.0566700737       73.5427903452
H                13.3551218498       36.3785314783       72.8268204319
H                11.4932352264       38.1681832829       74.5575562295
H                12.6537130891       38.8496231600       75.6952402324
H                13.0210480934       38.8193010549       73.9646601387
H                13.0618620082       33.9897885710       72.9968239569
H                14.2821325090       34.4185694261       74.1756107222
H                12.6457930576       34.0854248715       74.7136017539
N                16.0601227998       36.6814839145       73.1342957551
C                16.7921373424       37.0300524525       71.9343233360
C                16.7310405750       35.8154299220       71.0163376839
O                16.9782679538       34.6957497086       71.4412157703
C                18.2490915666       37.3349989945       72.3256998799
C                19.1965653631       37.6378392168       71.1596770128
C                18.8766782913       38.9844683875       70.5089045706
C                20.6362004536       37.6097018192       71.6781099472
H                16.1236337667       35.7185058595       73.4417068840
H                16.3101904976       37.9037974321       71.4867236194
H                18.2261070585       38.1802570562       73.0177371913
H                18.6046865707       36.4588225906       72.8729155800
H                19.0826594617       36.8481736778       70.4076699026
H                19.6808754318       39.2730428862       69.8364235420
H                17.9593565078       38.9305496548       69.9259269564
H                18.7611871410       39.7593396259       71.2652818661
H                21.3312338536       37.7774059620       70.8595973854
H                20.7753881328       38.3860428293       72.4269487279
H                20.8405148583       36.6385051073       72.1221495744
N                16.4974378537       36.0675478498       69.7235231585
C                16.3122773258       35.0166128462       68.7502020007
C                16.9775654532       35.4517738832       67.4496601690
O                17.0099315721       36.6301745154       67.1174415331
C                14.8224485911       34.7467697405       68.5051711742
C                14.1808584180       34.3739589635       69.8817222326
O                14.0867604346       33.1563861228       70.1416348166
O                13.8455372967       35.3281141493       70.6027975470
H                16.1742363087       36.9744378563       69.4242885618
H                16.7770154622       34.1080564394       69.1380818695
H                14.3474434446       35.6472933952       68.1095296235
H                14.7051406608       33.9203925953       67.8061627624
H                18.4082626983       23.4122162726       78.4569065501
H                19.3584143488       25.1687727022       81.9495937658
H                16.1883036134       30.8407377864       86.4065435043
H                19.3851025111       27.2458126317       72.8483267616
H                17.7436621833       30.5381965625       69.3500010442
H                15.5721128626       35.9294142430       85.6007194219
H                13.9705751483       40.8425639037       86.5220720078
H                17.3977433443       34.7702245818       66.8505432441
