595
Properties=species:S:1:pos:R:3 pbc="F F F"
N      56.48000000      24.76700000      19.71200000 
C      55.66500000      24.18500000      20.80100000 
C      56.60200000      23.00100000      21.70500000 
O      56.62700000      22.85400000      22.55600000 
C      54.59100000      23.70100000      20.21200000 
C      53.30400000      24.82100000      20.61000000 
C      53.77700000      22.50100000      20.53700000 
C      52.32900000      24.69400000      19.51400000 
H      56.24300000      24.79100000      18.94400000 
H      55.66400000      24.77600000      21.68700000 
H      54.56300000      23.69800000      19.29100000 
H      53.12000000      24.69800000      21.67300000 
H      53.83500000      25.76500000      20.48000000 
H      53.03900000      22.08700000      20.25400000 
H      54.72000000      21.47500000      20.19300000 
H      53.95700000      22.14100000      21.70200000 
H      51.37500000      25.59400000      20.06700000 
H      52.33600000      24.82000000      18.82800000 
H      51.52600000      23.74800000      19.89800000 
N      55.20000000      24.45900000      37.98600000 
C      54.10000000      25.11800000      36.98100000 
C      52.88400000      25.54300000      37.64600000 
O      52.24200000      26.02000000      37.72900000 
C      54.45500000      25.03400000      35.70200000 
C      53.87200000      25.80600000      34.53800000 
C      52.51500000      25.28900000      34.59300000 
C      53.92900000      27.23900000      34.76000000 
H      55.55800000      23.65600000      37.55200000 
H      54.62800000      26.45100000      37.41900000 
H      55.62300000      25.01100000      35.55200000 
H      54.26900000      23.85800000      35.57700000 
H      54.31100000      25.52400000      33.74600000 
H      51.90900000      25.96200000      33.33900000 
H      52.20200000      24.41000000      34.28000000 
H      51.69000000      25.77200000      35.26600000 
H      53.67200000      27.81200000      33.97600000 
H      53.46600000      27.69400000      35.71500000 
H      55.11400000      27.57800000      34.95400000 
N      52.22200000      23.77500000      37.98100000 
C      50.89200000      23.88500000      38.08500000 
C      50.91300000      24.29800000      39.78500000 
O      49.56200000      25.08900000      39.92900000 
C      50.80400000      22.16900000      38.04400000 
C      49.02000000      21.91900000      38.59200000 
C      48.80900000      21.49700000      39.77500000 
C      48.21200000      22.67400000      37.38900000 
H      52.88600000      23.20900000      37.80800000 
H      50.44100000      24.25200000      37.74800000 
H      50.92600000      22.03800000      37.37400000 
H      51.22700000      21.75700000      38.99900000 
H      49.17300000      20.77600000      38.02100000 
H      47.67300000      21.27600000      39.88400000 
H      49.28300000      21.32400000      40.42000000 
H      48.47200000      22.99100000      40.31500000 
H      47.23000000      22.18100000      37.53200000 
H      48.12200000      23.58600000      37.79900000 
H      48.52700000      22.62900000      36.49000000 
N      33.36300000      28.60500000      26.96600000 
C      34.24800000      28.12200000      25.60400000 
C      34.10100000      26.44800000      26.08900000 
O      34.97700000      26.02500000      26.52600000 
C      35.40100000      28.47800000      25.79800000 
C      35.83000000      29.98900000      25.08400000 
C      35.88300000      29.88300000      23.36300000 
C      35.01500000      30.90600000      25.52000000 
H      33.64100000      28.52600000      27.59700000 
H      33.53200000      28.21400000      24.71300000 
H      35.88200000      28.58500000      26.67500000 
H      36.15100000      27.76000000      25.15100000 
H      36.82900000      30.04200000      25.15500000 
H      35.97100000      30.53300000      23.07300000 
H      36.11500000      28.95700000      23.06900000 
H      34.49600000      29.68000000      23.17600000 
H      35.43500000      32.09000000      25.08800000 
H      34.02500000      31.03200000      25.36400000 
H      35.22000000      31.14800000      26.72100000 
N      39.01500000      25.95700000      23.68900000 
C      39.52900000      27.23800000      23.84500000 
C      40.87900000      27.25400000      23.72800000 
O      41.54900000      26.69900000      23.32900000 
C      39.02100000      27.33500000      25.55800000 
H      38.98500000      25.24800000      24.14500000 
H      38.84100000      28.04700000      23.30400000 
H      39.11000000      28.45700000      25.72300000 
H      38.09300000      27.08700000      25.58300000 
H      39.62700000      26.89400000      25.97100000 
N      41.27400000      28.63200000      24.19800000 
C      42.95600000      28.89700000      24.45500000 
C      43.00000000      29.61100000      25.62600000 
O      42.55900000      30.84700000      25.62800000 
C      43.59800000      29.32000000      23.19800000 
C      45.09700000      28.91400000      23.27200000 
C      45.55900000      27.59100000      22.86200000 
C      46.03000000      29.61900000      22.16400000 
H      40.86700000      29.32100000      24.45900000 
H      43.22000000      27.73900000      24.65000000 
H      43.09000000      28.98900000      22.24100000 
H      43.46000000      30.54900000      23.18100000 
H      45.51600000      29.19800000      24.06500000 
H      46.09900000      27.25500000      22.76200000 
H      44.86500000      26.85300000      23.69600000 
H      44.66200000      27.13800000      21.89900000 
H      46.75000000      29.56400000      22.05600000 
H      45.36100000      29.61300000      20.97600000 
H      45.70100000      30.94400000      22.28600000 
N      43.59800000      29.02200000      26.58600000 
C      43.69600000      29.59200000      28.05500000 
C      45.35300000      29.86300000      28.23200000 
O      45.94700000      29.11000000      27.85600000 
C      43.00300000      28.98200000      29.04600000 
C      41.64400000      29.34300000      29.48400000 
C      40.89300000      28.95300000      28.03100000 
C      41.30800000      27.83300000      30.47000000 
H      43.77500000      28.23200000      26.63600000 
H      43.25500000      30.74700000      27.96600000 
H      43.40300000      27.71800000      28.83800000 
H      43.72200000      29.04400000      30.12300000 
H      41.54300000      29.75400000      29.75200000 
H      39.61400000      28.91100000      28.44900000 
H      40.87800000      29.66900000      27.53000000 
H      40.92700000      27.93300000      27.57700000 
H      40.12900000      28.09900000      30.71000000 
H      41.28000000      26.92300000      29.96400000 
H      41.78400000      27.95600000      31.21700000 
N      45.53100000      30.98100000      29.00200000 
C      46.98200000      31.07600000      29.38300000 
C      46.84900000      30.75100000      31.16000000 
O      46.06400000      30.90600000      31.59700000 
C      47.39100000      32.84900000      29.31900000 
C      46.71700000      33.61100000      30.12400000 
C      48.78700000      32.71800000      29.19700000 
H      44.90900000      31.59100000      29.27100000 
H      47.56400000      30.52800000      28.96000000 
H      47.16300000      32.82000000      28.33100000 
H      46.97900000      34.64600000      29.90600000 
H      45.58200000      33.59000000      30.17000000 
H      46.96300000      33.54600000      31.21700000 
H      49.23100000      33.77200000      29.13800000 
H      49.29500000      32.60400000      30.51800000 
H      49.42800000      32.10800000      28.87900000 
N      48.05900000      30.22100000      31.36700000 
C      48.26900000      29.97600000      32.92600000 
C      49.57800000      30.59500000      33.32700000 
O      50.44900000      30.60200000      33.02500000 
C      48.44500000      28.42800000      33.17000000 
C      49.38200000      27.73500000      32.35500000 
C      48.46100000      28.17000000      34.46700000 
H      48.79000000      30.03300000      30.83100000 
H      47.34800000      30.26600000      33.32600000 
H      47.36100000      27.96000000      32.84500000 
H      49.33000000      26.55400000      32.53300000 
H      49.38600000      27.86600000      31.31200000 
H      50.49300000      27.95500000      32.70300000 
H      48.47600000      27.02100000      34.90500000 
H      49.59900000      28.55100000      35.06100000 
H      47.72900000      28.70500000      35.31000000 
N      44.55700000      31.18200000      35.91200000 
C      43.92800000      29.93900000      35.98700000 
C      43.52000000      29.30800000      37.19100000 
O      42.61100000      28.86600000      37.42900000 
C      44.60700000      28.99900000      34.88900000 
C      43.72900000      28.12300000      33.74300000 
C      44.53200000      27.30400000      33.09400000 
C      42.61000000      27.14700000      34.75900000 
H      45.50600000      31.25300000      35.62500000 
H      42.82400000      30.13500000      35.34300000 
H      45.31500000      29.47200000      34.24200000 
H      45.21200000      28.18700000      35.54800000 
H      43.08400000      28.82700000      33.40000000 
H      43.89600000      26.75900000      32.24600000 
H      45.16800000      28.02000000      32.32500000 
H      45.19000000      26.66100000      33.42000000 
H      42.14500000      26.62100000      33.95000000 
H      43.27300000      26.44100000      35.24700000 
H      42.06200000      27.61900000      35.25700000 
N      40.63300000      32.98100000      33.70800000 
C      41.44800000      33.22200000      32.69300000 
C      40.89400000      34.15600000      31.48500000 
O      40.10800000      34.18600000      31.38400000 
C      42.16800000      31.84200000      32.46500000 
C      40.72800000      31.12000000      32.26400000 
C      40.07500000      31.45800000      33.73800000 
H      42.44900000      33.80700000      33.16000000 
H      42.60500000      31.86900000      31.13100000 
H      42.74100000      31.50400000      32.85600000 
H      40.14900000      31.22000000      31.30500000 
H      40.96800000      29.91900000      32.32200000 
H      38.98600000      31.55400000      33.35900000 
H      40.25200000      31.01800000      34.23000000 
N      41.72600000      34.43000000      30.75400000 
C      41.78800000      35.14100000      29.31000000 
C      41.26900000      33.86000000      28.32400000 
O      41.51200000      32.89400000      28.60700000 
C      42.63500000      36.07200000      28.81000000 
O      43.63000000      34.93800000      28.82500000 
C      43.07500000      37.12200000      29.88500000 
H      42.99100000      34.26500000      30.77800000 
H      40.71700000      35.67700000      29.49300000 
H      42.52600000      36.40300000      27.96500000 
H      44.89400000      35.71000000      28.33900000 
H      43.96300000      37.81200000      29.36400000 
H      42.21300000      37.73300000      29.98000000 
H      43.38100000      36.76500000      30.82000000 
N      40.91900000      34.40900000      27.19000000 
C      40.31100000      33.56400000      26.22700000 
C      40.86300000      33.81100000      24.88700000 
O      40.39400000      33.56500000      23.67700000 
C      38.93300000      33.27900000      26.03500000 
C      37.71700000      34.41400000      26.40000000 
C      37.74500000      35.17200000      27.44100000 
C      38.04500000      35.47300000      25.03100000 
H      40.66800000      35.36000000      27.01400000 
H      40.90600000      32.53000000      26.31000000 
H      38.63100000      32.64600000      25.29500000 
H      38.72600000      32.60300000      27.07600000 
H      37.04200000      34.00200000      26.18300000 
H      36.97200000      35.70700000      27.72600000 
H      37.97300000      34.39400000      28.49600000 
H      38.70600000      35.87300000      27.73700000 
H      37.22500000      36.14800000      25.21200000 
H      38.95900000      35.97400000      25.12500000 
H      37.93500000      34.96400000      24.13800000 
N      44.57800000      24.00900000      16.46900000 
C      45.01000000      25.30200000      17.22100000 
C      45.34700000      26.51100000      16.29100000 
O      44.83000000      27.60100000      16.71100000 
C      46.31600000      25.15800000      17.99700000 
C      46.47100000      26.29600000      19.26800000 
C      45.98500000      23.77900000      19.04300000 
H      45.72300000      23.66400000      15.89000000 
H      44.26900000      25.42500000      17.77400000 
H      47.10500000      25.07900000      17.67300000 
H      47.12100000      26.11900000      19.84800000 
H      46.41300000      27.16900000      18.69100000 
H      45.37800000      26.26200000      19.83600000 
H      47.02400000      23.66600000      19.69500000 
H      45.28700000      23.69400000      19.44700000 
H      46.19100000      22.86300000      18.26600000 
N      53.24700000      34.54700000      25.28600000 
C      53.11200000      33.21400000      25.34900000 
C      54.86500000      33.02000000      25.75100000 
O      55.62600000      33.47000000      24.53800000 
C      52.67100000      32.52700000      24.20800000 
C      51.36900000      32.71700000      23.97300000 
C      53.29800000      30.97900000      24.45600000 
C      50.36100000      32.02500000      24.92500000 
H      53.54900000      35.20700000      24.73100000 
H      52.84600000      32.88500000      26.27900000 
H      53.25400000      32.99500000      23.22300000 
H      50.99700000      33.75000000      23.87500000 
H      50.98300000      32.29500000      23.07500000 
H      52.69400000      30.47100000      23.30000000 
H      54.07500000      30.90800000      24.08800000 
H      52.89100000      30.61300000      24.97700000 
H      49.21300000      32.28100000      24.77400000 
H      50.47500000      30.98000000      25.11800000 
H      50.50100000      32.55900000      26.06200000 
N      52.38100000      28.84800000      29.29900000 
C      51.76000000      28.03300000      28.30100000 
C      50.26300000      28.40500000      28.57000000 
O      49.77400000      28.60800000      28.56000000 
C      52.25800000      26.48900000      28.82800000 
C      52.38800000      26.82800000      30.37400000 
C      52.74900000      28.04000000      30.51400000 
H      52.32500000      28.30300000      27.34800000 
H      51.80400000      25.84600000      28.41200000 
H      53.47200000      26.47000000      28.36100000 
H      51.49200000      26.51700000      30.66600000 
H      53.10000000      25.95000000      30.76100000 
H      52.36400000      28.54000000      31.49100000 
H      53.85300000      28.24100000      30.65400000 
N      49.58100000      27.05200000      26.98800000 
C      48.64700000      27.30200000      26.50000000 
C      47.59300000      25.71000000      26.98000000 
O      48.26600000      24.99300000      26.92800000 
C      48.60500000      27.52700000      25.26600000 
C      49.78200000      26.83000000      24.16100000 
C      49.05500000      26.41100000      22.90600000 
C      50.87100000      27.42300000      23.96200000 
H      50.59800000      26.48400000      26.77300000 
H      47.95200000      28.07800000      27.14400000 
H      47.57000000      27.42300000      24.69300000 
H      48.82700000      28.62900000      25.00200000 
H      49.82000000      25.78900000      24.76900000 
H      49.77400000      25.81800000      22.29400000 
H      48.12300000      25.74600000      22.94800000 
H      48.81600000      27.28300000      22.37100000 
H      51.62900000      26.89100000      23.57100000 
H      50.74900000      28.36400000      23.53000000 
H      51.44000000      27.80500000      25.11400000 
N      46.58700000      26.43700000      26.95700000 
C      45.51800000      25.11400000      27.81600000 
C      44.18900000      25.09200000      26.70400000 
O      43.80900000      26.20500000      26.42300000 
C      45.22200000      25.26600000      28.97200000 
C      44.09700000      24.58500000      29.71500000 
C      46.78700000      25.59500000      29.68000000 
H      46.14700000      26.84600000      27.07900000 
H      46.01100000      24.07200000      27.49600000 
H      44.78900000      26.51500000      29.13500000 
H      44.22800000      24.70200000      30.81700000 
H      43.45700000      24.51200000      29.40700000 
H      44.70300000      23.32700000      29.72500000 
H      46.36900000      25.68800000      31.03400000 
H      47.11000000      24.69300000      29.78400000 
H      47.14600000      26.29100000      29.57400000 
N      43.38600000      23.86600000      26.62600000 
C      42.04500000      23.84000000      26.36500000 
C      41.29200000      23.46900000      26.74900000 
O      41.64300000      22.06700000      27.87600000 
C      42.31100000      23.46200000      24.65200000 
C      42.36100000      21.86100000      24.44600000 
C      43.52500000      20.99400000      24.78700000 
C      41.22500000      21.12000000      23.70200000 
C      43.62500000      19.92900000      24.48300000 
C      41.82100000      19.60200000      23.60200000 
C      42.50900000      19.40800000      23.84100000 
O      42.74600000      17.86500000      23.46900000 
H      43.93900000      23.06300000      27.12600000 
H      41.91000000      24.95800000      26.02200000 
H      41.09300000      23.69800000      24.24100000 
H      42.82200000      23.85600000      24.12600000 
H      44.27700000      21.76900000      25.34200000 
H      40.41800000      21.63800000      23.45900000 
H      44.58200000      19.35800000      24.87100000 
H      40.71300000      19.27200000      22.89300000 
H      43.75900000      17.38400000      23.87900000 
N      39.83400000      23.56300000      27.29800000 
C      38.99900000      23.28100000      27.62800000 
C      38.67100000      21.76100000      27.24900000 
O      38.46800000      21.59300000      26.19300000 
C      37.76000000      23.86000000      28.21800000 
C      38.13600000      25.38100000      29.01900000 
C      36.66700000      23.54200000      29.12300000 
C      37.36500000      26.14400000      29.30800000 
H      39.72100000      24.42800000      26.49200000 
H      39.51300000      22.82300000      29.09600000 
H      37.35000000      24.24300000      27.30300000 
H      38.96100000      25.08300000      29.63300000 
H      38.97900000      25.90000000      27.99600000 
H      35.93100000      23.92600000      29.21900000 
H      36.42400000      22.35100000      28.71200000 
H      37.18200000      23.12300000      30.13200000 
H      37.67700000      27.25900000      29.59100000 
H      36.43500000      26.47400000      28.58100000 
H      36.74800000      25.93600000      30.20200000 
N      38.42700000      20.43600000      28.53300000 
C      38.25300000      19.40100000      27.97000000 
C      36.83200000      18.89400000      27.81200000 
O      36.03600000      19.58000000      27.23700000 
C      39.55200000      18.63400000      28.83000000 
O      39.53200000      17.13600000      28.08700000 
H      38.50700000      20.84400000      29.01500000 
H      38.66400000      19.22600000      26.70600000 
H      40.22500000      18.96200000      28.57000000 
H      39.06800000      18.46900000      29.57100000 
H      40.35400000      16.89200000      28.20900000 
N      34.12900000      21.90300000      35.34000000 
C      35.09100000      22.37100000      34.11200000 
C      36.44900000      21.25200000      34.75100000 
O      36.78700000      21.31400000      35.70200000 
C      35.57500000      23.78200000      34.32900000 
C      34.45800000      24.56400000      33.63400000 
C      34.33700000      24.83700000      32.19100000 
C      33.58000000      25.35100000      34.14800000 
C      33.66600000      25.59800000      31.40600000 
C      32.53900000      26.39200000      34.13200000 
C      32.46500000      26.62200000      32.37500000 
O      31.83600000      27.33400000      32.08800000 
H      34.44500000      22.32000000      36.23200000 
H      34.67800000      21.85600000      33.43900000 
H      35.64800000      24.01400000      35.07600000 
H      36.35800000      23.78600000      33.59600000 
H      35.00200000      24.24500000      31.58800000 
H      33.58200000      25.21300000      35.60300000 
H      33.46400000      25.86800000      30.64300000 
H      32.11300000      26.78800000      34.36000000 
H      32.14000000      27.85500000      31.02000000 
N      36.97500000      21.08200000      33.44000000 
C      38.20200000      20.32200000      33.68000000 
C      39.10500000      20.55900000      32.24200000 
O      38.33900000      20.64300000      31.21900000 
C      38.28400000      18.64800000      33.87000000 
O      39.35500000      18.21100000      33.82400000 
C      37.26000000      17.89400000      33.16900000 
H      36.77300000      21.02100000      32.73900000 
H      38.95400000      20.75000000      34.45600000 
H      37.93500000      18.73100000      35.03400000 
H      39.56200000      17.38900000      34.15500000 
H      37.14300000      17.12000000      33.37400000 
H      36.04000000      18.48200000      33.33800000 
H      37.37800000      18.14700000      32.03300000 
N      40.64400000      20.69900000      32.72300000 
C      41.20200000      21.10000000      31.21400000 
C      42.34400000      20.18500000      30.90600000 
O      42.78300000      19.47300000      31.82100000 
C      41.66000000      22.78400000      31.38400000 
O      42.78900000      22.63900000      32.25200000 
C      40.59900000      23.54400000      31.80100000 
H      40.79200000      20.63300000      33.05300000 
H      40.47000000      21.11200000      30.30300000 
H      42.01800000      22.86600000      30.42500000 
H      43.06800000      23.35500000      32.46300000 
H      40.98800000      24.56700000      31.72300000 
H      39.70000000      23.48900000      31.19600000 
H      40.36200000      23.39200000      32.81000000 
N      42.67500000      20.45300000      29.74400000 
C      44.12900000      19.63100000      29.12400000 
C      44.85900000      20.51300000      28.66600000 
O      44.56300000      21.32300000      27.77500000 
C      43.43500000      18.44100000      28.19300000 
O      42.54600000      17.56300000      28.79100000 
H      42.48000000      20.86300000      29.12700000 
H      44.41400000      18.98700000      30.11600000 
H      42.96200000      18.99300000      27.43600000 
H      44.35500000      17.95500000      27.81800000 
H      42.98600000      16.92100000      29.45400000 
N      46.33000000      20.29800000      29.09700000 
C      47.16300000      21.43700000      28.33700000 
C      47.59200000      20.85800000      27.04500000 
O      47.55400000      19.59200000      26.72400000 
C      48.40100000      21.55700000      29.36400000 
C      48.35100000      22.13700000      30.71400000 
C      47.16700000      21.90200000      31.20300000 
C      49.25500000      22.83800000      31.04000000 
C      46.84200000      22.88500000      33.02800000 
C      49.41200000      23.69800000      32.50600000 
C      48.10400000      23.35300000      33.07900000 
H      46.53800000      19.65800000      29.56600000 
H      46.77900000      22.25200000      28.44300000 
H      48.89200000      20.40300000      29.50500000 
H      49.19500000      21.91800000      28.83900000 
H      46.33000000      21.46900000      31.16800000 
H      50.23600000      23.04700000      30.58300000 
H      46.26800000      22.60700000      33.19500000 
H      49.97700000      24.11300000      32.68900000 
H      48.00700000      24.02800000      34.17900000 
N      48.00300000      22.23000000      26.32100000 
C      48.32300000      21.36100000      24.83700000 
C      49.78700000      21.88600000      24.67100000 
O      50.21800000      22.87200000      24.70900000 
C      47.49500000      22.66900000      23.68400000 
C      47.34600000      21.98600000      22.44100000 
C      48.77700000      22.19600000      21.63200000 
C      46.66000000      20.79700000      22.37200000 
H      47.99100000      22.68000000      26.45100000 
H      48.06900000      20.63800000      24.61800000 
H      46.39500000      22.47900000      24.32700000 
H      47.77500000      23.44000000      23.98200000 
H      46.70200000      22.83400000      21.97300000 
H      48.47300000      22.00200000      20.54800000 
H      49.18700000      23.11300000      21.76800000 
H      49.35800000      21.34800000      21.95900000 
H      46.54600000      20.50400000      21.04000000 
H      47.32100000      19.92800000      22.57800000 
H      45.74600000      20.65200000      22.69600000 
N      50.54500000      20.67100000      24.32100000 
C      51.77300000      20.75200000      23.64900000 
C      52.17200000      19.27800000      23.92400000 
O      52.58500000      18.63400000      22.48500000 
C      53.07200000      21.14700000      24.85900000 
C      53.19800000      22.99600000      24.29600000 
C      53.77300000      23.46600000      25.74700000 
N      53.22400000      23.48800000      26.82900000 
C      53.21100000      23.22100000      28.07600000 
N      54.45600000      23.71800000      28.48500000 
N      52.59800000      22.89100000      29.05900000 
H      49.94200000      19.86300000      24.28600000 
H      51.92900000      21.07700000      22.91300000 
H      52.67100000      21.16300000      25.73800000 
H      53.79900000      20.83400000      24.66700000 
H      53.87600000      22.88800000      23.74300000 
H      52.38600000      23.27800000      24.21300000 
H      54.76200000      23.11200000      25.95300000 
H      54.02700000      24.51800000      25.45800000 
H      51.83300000      23.24300000      26.64500000 
H      55.21400000      24.29500000      27.78500000 
H      54.88700000      23.56700000      29.37900000 
H      51.65100000      22.36500000      28.72600000 
H      52.72600000      22.84800000      30.06000000 
N      50.21000000      16.47800000      25.60200000 
C      49.04600000      15.69300000      25.85200000 
C      49.28100000      15.02500000      27.13300000 
O      48.28000000      13.96200000      27.46700000 
C      48.97900000      14.54800000      24.90600000 
C      48.03200000      14.98400000      23.68000000 
O      46.94800000      14.33800000      23.21300000 
N      48.25000000      16.45400000      22.54700000 
H      50.12500000      17.52700000      25.54100000 
H      48.41700000      16.25600000      25.90600000 
H      49.76900000      14.25400000      24.34300000 
H      48.34500000      13.78100000      25.17500000 
H      47.96600000      16.37700000      22.35300000 
H      49.17200000      16.68300000      23.17300000 
N      49.40600000      16.68100000      30.46100000 
C      49.15300000      17.54100000      31.72700000 
C      47.51200000      17.82200000      31.73600000 
O      47.13800000      18.17400000      30.65500000 
C      50.00500000      18.99000000      31.58700000 
C      49.78400000      19.54000000      32.93200000 
C      51.37400000      18.40800000      31.41800000 
H      49.22200000      17.03900000      29.68100000 
H      49.32700000      16.90200000      32.58600000 
H      49.74300000      19.30700000      30.98900000 
H      50.44800000      20.45300000      32.98900000 
H      48.76800000      19.96000000      33.11500000 
H      50.06400000      19.02300000      33.86100000 
H      52.07600000      19.39400000      31.59300000 
H      51.87900000      17.67800000      32.33600000 
H      51.68700000      18.01200000      30.49600000 
N      46.92800000      17.87100000      32.67500000 
C      45.66600000      18.24700000      32.83700000 
C      44.99300000      18.91600000      34.07700000 
O      46.54000000      18.50900000      35.61900000 
C      44.59300000      16.91400000      33.09600000 
H      47.54200000      17.55700000      33.76200000 
H      45.36700000      18.87500000      32.33300000 
H      43.72600000      17.22000000      32.97000000 
H      44.87400000      16.50000000      31.78000000 
H      44.92000000      16.27100000      33.54500000 
N      44.37800000      19.52000000      34.51500000 
C      43.97800000      20.25100000      35.61400000 
C      42.37800000      19.95400000      36.05600000 
O      41.76100000      20.38400000      35.08500000 
C      44.72400000      21.31600000      36.26100000 
O      44.35900000      21.53100000      37.66700000 
C      43.77200000      22.57500000      35.53800000 
H      43.75600000      19.73300000      33.86900000 
H      44.46200000      19.26100000      36.76200000 
H      45.54000000      21.37700000      35.95600000 
H      44.64300000      22.48300000      37.95300000 
H      44.50500000      23.55200000      35.70600000 
H      43.95600000      22.44200000      34.31700000 
H      42.97200000      22.78500000      35.76400000 
N      41.96300000      19.51200000      37.43600000 
C      40.73400000      19.68900000      37.45800000 
C      40.37900000      20.84200000      38.36900000 
O      40.85500000      21.11800000      39.38800000 
C      40.06100000      18.32600000      38.50400000 
C      39.81100000      17.19400000      37.61800000 
C      40.78000000      16.42100000      36.61700000 
C      38.59700000      16.48100000      37.57400000 
C      40.37200000      15.39600000      36.05800000 
C      38.28300000      15.72800000      37.00000000 
C      39.17000000      14.93500000      36.06300000 
H      42.54900000      19.38300000      37.84200000 
H      39.95700000      19.55900000      36.62000000 
H      41.02100000      18.15000000      39.11700000 
H      39.44300000      18.60800000      38.97500000 
H      41.80200000      16.88000000      36.73400000 
H      37.77100000      17.09400000      38.31500000 
H      41.15600000      14.96200000      35.35600000 
H      37.04000000      15.07600000      36.97400000 
H      38.83400000      14.03900000      35.44300000 
N      39.48300000      21.74000000      37.74900000 
C      39.04400000      23.02800000      38.39100000 
C      37.98800000      22.90400000      38.85100000 
O      37.19000000      21.69300000      39.32800000 
C      39.37500000      24.22000000      37.59000000 
C      38.78300000      24.22200000      36.04000000 
C      38.81800000      25.51000000      35.43100000 
O      39.14500000      25.36800000      33.96200000 
N      38.70700000      26.74300000      35.94900000 
H      38.96700000      21.51800000      36.95100000 
H      39.70300000      23.10300000      39.23100000 
H      39.22300000      25.10200000      38.04400000 
H      40.54400000      24.22200000      37.30700000 
H      39.00300000      23.46000000      35.55400000 
H      37.58800000      24.10700000      36.32800000 
H      38.50500000      26.79100000      36.82000000 
H      38.79600000      27.43000000      35.37700000 
H      56.63853665      25.63553619      19.88667402 
H      57.21562569      22.37550616      21.22310688 
H      55.85970234      25.05163169      38.13955946 
H      51.68025102      24.01272545      40.35940778 
H      33.18242127      29.48494292      26.91039628 
H      33.23930517      25.96048170      25.94825939 
H      38.12431371      26.00329922      23.56844168 
H      49.62666127      31.18240138      34.13483148 
H      44.11863161      31.70564824      35.32580406 
H      44.15312954      29.24626597      37.96258013 
H      41.00207278      33.28830255      34.46915073 
H      41.75894238      34.24383590      24.78729883 
H      44.27698643      23.40280688      17.06222907 
H      45.90947878      26.37313667      15.47576302 
H      52.43800275      34.93465221      25.35845149 
H      55.13660947      32.66891410      26.64708425 
H      52.94296311      29.42996278      28.90464384 
H      36.57493254      18.00233267      28.18462003 
H      33.28453067      22.16889794      35.17822909 
H      52.13766123      18.91618686      24.85561800 
H      50.81056627      16.34229574      26.25843317 
H      50.05919272      15.29266557      27.70112958 
H      50.27684527      16.45778172      30.41854865 
H      37.41083531      23.70661683      39.00162252 
