372
Properties=species:S:1:pos:R:3 pbc="F F F"
N      36.18500000      31.10700000      48.29000000 
C      34.81500000      30.82500000      48.55400000 
C      34.65700000      29.38900000      48.20800000 
O      35.35700000      28.87900000      47.26400000 
C      33.86400000      31.64800000      47.70300000 
C      34.34900000      31.81000000      46.34300000 
C      33.24600000      32.00400000      45.32300000 
N      32.98200000      33.36200000      44.83800000 
C      32.87900000      33.74400000      43.68600000 
N      32.66000000      32.87000000      42.71300000 
N      32.95600000      35.03900000      43.29300000 
H      36.58700000      30.75000000      47.63600000 
H      34.58000000      30.94100000      49.65200000 
H      32.89500000      31.30200000      47.78600000 
H      33.81600000      32.70100000      48.23700000 
H      35.05700000      32.59400000      46.21000000 
H      34.87100000      30.90900000      46.06300000 
H      33.65400000      31.51900000      44.35400000 
H      32.39900000      31.51900000      45.55900000 
H      32.98900000      34.08900000      45.64500000 
H      32.45300000      31.95400000      42.91900000 
H      33.06200000      33.03400000      41.79900000 
H      33.27100000      35.76400000      44.01900000 
H      32.77800000      35.31000000      42.41600000 
N      33.75700000      28.64200000      48.84400000 
C      33.56100000      27.30900000      48.52500000 
C      32.07400000      26.93900000      48.86100000 
O      31.25700000      26.70200000      47.95100000 
C      34.45100000      26.34700000      49.23100000 
O      34.08400000      25.01800000      49.01600000 
H      33.25500000      29.09100000      49.68200000 
H      33.64700000      27.13200000      47.52200000 
H      35.43900000      26.55100000      48.98800000 
H      34.40300000      26.51700000      50.37800000 
H      33.97400000      24.45200000      49.72000000 
N      40.66900000      30.23900000      38.55600000 
C      39.54600000      29.85200000      37.84300000 
C      39.00100000      30.99300000      36.99400000 
O      37.80400000      31.06800000      36.71200000 
C      38.47200000      29.33700000      38.69100000 
C      38.74100000      28.01200000      39.31300000 
O      38.24200000      26.92000000      38.77500000 
N      39.55000000      27.93000000      40.35200000 
H      41.60000000      29.73500000      38.30400000 
H      39.85800000      29.06600000      37.13100000 
H      38.26700000      30.03100000      39.51000000 
H      37.54100000      29.23500000      38.15800000 
H      39.77500000      27.09800000      40.76000000 
H      39.93700000      28.73800000      40.76300000 
N      22.96900000      17.49300000      44.28400000 
C      23.46500000      17.81800000      42.95900000 
C      23.16400000      16.59800000      42.00100000 
O      23.23300000      15.50500000      42.35300000 
C      24.99500000      17.95500000      43.04400000 
C      25.68800000      18.24900000      41.72500000 
C      27.15000000      18.81800000      42.03500000 
C      27.97200000      17.74400000      42.69400000 
N      29.28900000      18.43900000      43.15200000 
H      23.10100000      16.48400000      44.57000000 
H      23.03000000      18.63900000      42.58300000 
H      25.15000000      18.81500000      43.74000000 
H      25.40900000      17.06000000      43.53100000 
H      25.75100000      17.34400000      41.13700000 
H      25.15900000      18.97500000      41.17800000 
H      27.58800000      19.04000000      41.02500000 
H      27.04000000      19.68800000      42.56200000 
H      27.50000000      17.43900000      43.66000000 
H      28.22700000      16.93800000      42.10700000 
H      29.82000000      17.82100000      43.59700000 
H      29.75000000      18.76800000      42.34700000 
H      29.08500000      19.20900000      43.73100000 
N      24.09800000      15.52000000      37.72000000 
C      24.84000000      15.79800000      36.50700000 
C      24.18100000      14.83500000      35.38100000 
O      23.89900000      13.70600000      35.68600000 
C      26.29400000      15.42700000      36.67000000 
C      26.94600000      16.55700000      37.47400000 
C      26.97600000      15.20700000      35.32700000 
C      28.29400000      16.26700000      37.94000000 
H      24.03400000      14.58800000      37.99700000 
H      24.72100000      16.73700000      36.20200000 
H      26.34900000      14.54100000      37.22100000 
H      27.00500000      17.40800000      36.78400000 
H      26.32300000      16.80400000      38.24900000 
H      28.06700000      15.09000000      35.44000000 
H      26.63800000      14.28600000      34.84000000 
H      26.79300000      15.99000000      34.65800000 
H      28.77300000      17.05000000      38.45300000 
H      28.28400000      15.42600000      38.67300000 
H      29.00600000      15.91200000      37.16800000 
N      32.98500000      18.72300000      29.61700000 
C      32.14300000      19.56000000      30.47700000 
C      30.89800000      18.80200000      30.80000000 
O      30.50600000      17.93500000      29.96500000 
C      31.93700000      20.91300000      29.83700000 
C      31.15500000      20.77800000      28.54200000 
C      31.24300000      21.83200000      30.79700000 
H      32.59100000      18.14600000      28.99500000 
H      32.72500000      19.70100000      31.42700000 
H      32.87700000      21.30600000      29.64900000 
H      31.04200000      21.69400000      28.09700000 
H      31.74000000      20.15900000      27.83100000 
H      30.23400000      20.30600000      28.68300000 
H      31.16600000      22.89100000      30.31800000 
H      30.16400000      21.54300000      30.94000000 
H      31.70000000      21.93000000      31.75200000 
N      30.22300000      19.09600000      31.80500000 
C      28.98500000      18.50000000      32.20800000 
C      28.08800000      19.42800000      32.78500000 
O      28.47700000      20.48900000      33.41700000 
C      29.24900000      17.33800000      33.14700000 
H      30.59100000      19.80200000      32.45900000 
H      28.56000000      18.07900000      31.29000000 
H      28.29100000      16.84000000      33.43100000 
H      29.87900000      16.58800000      32.67300000 
H      29.74200000      17.67300000      34.06600000 
N      26.74600000      19.27300000      32.68000000 
C      25.74500000      20.13200000      33.10700000 
C      24.79000000      19.39700000      34.03200000 
O      24.55900000      18.22100000      33.94600000 
C      24.85400000      20.70400000      31.95900000 
C      25.51300000      21.48700000      30.91700000 
C      26.94500000      21.76300000      30.89100000 
C      24.72700000      22.01500000      29.91500000 
C      27.48300000      22.52400000      29.82800000 
C      25.24400000      22.80500000      28.85500000 
C      26.66700000      23.03300000      28.86100000 
O      27.17000000      23.80500000      27.84100000 
H      26.48800000      18.40500000      32.20400000 
H      26.21000000      20.97100000      33.63500000 
H      24.34400000      19.82900000      31.50500000 
H      24.09400000      21.25500000      32.39400000 
H      27.54500000      21.39000000      31.63800000 
H      23.67200000      21.84900000      29.90600000 
H      28.48300000      22.72800000      29.84800000 
H      24.67200000      23.20900000      28.12500000 
H      28.04300000      24.00100000      27.90500000 
N      24.14100000      20.21600000      34.88400000 
C      23.17000000      19.65500000      35.83900000 
C      22.56800000      20.65400000      36.69600000 
O      22.36000000      21.79400000      36.25900000 
H      24.29800000      21.16500000      34.95000000 
H      22.34500000      19.15100000      35.29200000 
H      23.66300000      18.86400000      36.46900000 
N      22.25300000      20.30700000      37.91000000 
C      21.59700000      21.17600000      38.85100000 
C      22.19100000      20.95300000      40.23900000 
O      22.65700000      19.80100000      40.56100000 
C      20.07100000      20.93600000      38.90700000 
C      19.63100000      19.49400000      39.08900000 
C      18.13900000      19.48800000      39.05400000 
N      17.51500000      18.23300000      38.73800000 
C      16.97600000      17.36100000      39.62500000 
N      16.02500000      16.38800000      39.20800000 
N      17.30700000      17.39200000      40.87200000 
H      22.56400000      19.37000000      38.26400000 
H      21.79000000      22.15100000      38.60100000 
H      19.68500000      21.58600000      39.66200000 
H      19.74400000      21.28500000      37.91600000 
H      19.99100000      18.91400000      38.30900000 
H      20.01300000      19.08500000      40.02600000 
H      17.74300000      19.84400000      40.03100000 
H      17.75400000      20.19300000      38.37000000 
H      17.23600000      18.10200000      37.77500000 
H      15.77800000      16.44500000      38.24700000 
H      15.70400000      15.82900000      39.80900000 
H      18.03100000      18.05500000      41.21600000 
H      16.83400000      16.82600000      41.55300000 
N      22.26400000      21.93800000      41.03600000 
C      22.85400000      21.94900000      42.35900000 
C      21.93900000      22.68000000      43.25100000 
O      21.53100000      23.79400000      42.91700000 
C      24.29700000      22.50100000      42.31500000 
C      25.06800000      22.03100000      43.47400000 
C      26.53700000      22.36800000      43.45400000 
O      27.36700000      21.79800000      44.22900000 
N      26.91900000      23.32300000      42.51400000 
H      21.92400000      22.86200000      40.72200000 
H      22.90400000      20.87200000      42.64400000 
H      24.74300000      22.13100000      41.38400000 
H      24.22900000      23.56200000      42.26000000 
H      24.70500000      22.42400000      44.41200000 
H      25.02700000      20.94000000      43.58800000 
H      26.34400000      23.71300000      41.96000000 
H      27.92600000      23.52500000      42.55600000 
N      21.32300000      25.95300000      41.16700000 
C      22.15400000      26.24500000      40.06100000 
C      21.54800000      25.86100000      38.77900000 
O      21.77500000      26.52200000      37.66800000 
C      23.52700000      25.53700000      40.18000000 
C      24.56800000      25.96400000      39.27700000 
C      24.73100000      27.44300000      39.15600000 
C      25.86900000      25.32600000      39.61300000 
H      21.50700000      25.14700000      41.76400000 
H      22.32100000      27.37100000      40.00800000 
H      23.85900000      25.83300000      41.22300000 
H      23.36200000      24.50000000      40.18000000 
H      24.27500000      25.56700000      38.19200000 
H      25.62800000      27.70800000      38.52700000 
H      23.91300000      27.92200000      38.67000000 
H      24.87600000      27.85800000      40.07600000 
H      26.63900000      25.44900000      38.87500000 
H      26.23000000      25.71400000      40.55400000 
H      25.76500000      24.22100000      39.73800000 
N      22.60000000      23.17300000      33.53800000 
C      23.45100000      24.46800000      33.66800000 
C      24.83800000      23.93500000      33.84600000 
O      25.04700000      22.89500000      34.57700000 
C      22.99400000      25.20400000      34.81600000 
C      23.16700000      26.74200000      34.78900000 
C      24.60900000      27.11100000      35.20900000 
C      22.78400000      27.33600000      33.51500000 
H      22.64100000      22.58900000      34.22700000 
H      23.38800000      24.95800000      32.78300000 
H      21.86000000      25.05800000      34.83400000 
H      23.33600000      24.79700000      35.76400000 
H      22.47400000      27.12800000      35.54700000 
H      24.70600000      28.19800000      35.14000000 
H      24.72700000      26.85300000      36.28700000 
H      25.28900000      26.64100000      34.71600000 
H      22.69600000      28.39200000      33.52700000 
H      23.55300000      27.10200000      32.68400000 
H      21.82900000      26.92000000      33.11100000 
N      25.90000000      24.51400000      33.21900000 
C      27.22400000      23.97700000      33.40700000 
C      27.59200000      23.82900000      34.90200000 
O      27.39700000      24.74100000      35.72000000 
C      28.06600000      25.03100000      32.73500000 
C      27.20800000      25.55300000      31.62700000 
C      25.86900000      25.60000000      32.27300000 
H      27.30900000      23.03900000      32.94800000 
H      28.33700000      25.80600000      33.43600000 
H      29.05900000      24.57400000      32.39300000 
H      27.51400000      26.45400000      31.25800000 
H      27.23800000      24.85400000      30.81900000 
H      25.65900000      26.49500000      32.68900000 
H      25.05800000      25.37100000      31.50900000 
N      28.22700000      22.68700000      35.20400000 
C      28.68200000      22.39700000      36.45600000 
C      30.22100000      22.47000000      36.45500000 
O      30.74800000      23.56400000      36.51200000 
C      28.10900000      21.07400000      36.99200000 
C      26.58900000      21.09200000      36.95000000 
C      28.56400000      20.74300000      38.37900000 
C      25.95600000      22.12000000      37.84100000 
H      28.26600000      21.96700000      34.49500000 
H      28.38200000      23.16100000      37.13600000 
H      28.43200000      20.27000000      36.34800000 
H      26.30500000      21.27600000      35.95500000 
H      26.23400000      20.12600000      37.19700000 
H      28.07500000      19.93200000      38.82000000 
H      29.66400000      20.51300000      38.43400000 
H      28.46100000      21.59800000      39.04300000 
H      24.86200000      22.09100000      37.74900000 
H      26.20900000      21.97300000      38.87100000 
H      26.27200000      23.14700000      37.54300000 
N      30.87400000      21.28700000      36.30600000 
C      32.31800000      21.32100000      36.41100000 
C      32.98600000      21.70900000      35.10600000 
O      32.41300000      21.50500000      34.00500000 
C      32.82100000      19.98700000      36.84300000 
O      32.31200000      19.77600000      38.14700000 
H      30.45000000      20.47100000      36.24300000 
H      32.61400000      22.06300000      37.14600000 
H      32.44400000      19.19500000      36.16200000 
H      33.85300000      19.95300000      36.83600000 
H      32.67400000      18.97500000      38.55500000 
N      34.23700000      22.20200000      35.27000000 
C      35.08500000      22.46000000      34.13300000 
C      36.40300000      21.73700000      34.40600000 
O      36.81000000      21.55200000      35.53400000 
C      35.37500000      23.95900000      34.03900000 
C      34.25500000      24.81200000      33.62400000 
C      34.12200000      24.96900000      32.18400000 
C      33.37800000      25.37400000      34.38800000 
C      33.09900000      25.83300000      31.71100000 
C      32.38600000      26.20300000      33.94100000 
C      32.25100000      26.39200000      32.57300000 
O      31.26500000      27.26400000      32.18600000 
H      34.57600000      22.32200000      36.19000000 
H      34.68600000      22.13300000      33.24800000 
H      35.68600000      24.29600000      35.05700000 
H      36.28900000      24.10500000      33.46400000 
H      34.81200000      24.50700000      31.49700000 
H      33.49700000      25.24900000      35.50100000 
H      33.01100000      25.96000000      30.65300000 
H      31.69200000      26.69500000      34.61300000 
H      31.35500000      27.54200000      31.20100000 
N      39.43800000      21.90900000      37.32300000 
C      39.09800000      23.14500000      37.97200000 
C      37.78200000      22.99100000      38.55700000 
O      37.31900000      21.87300000      38.97700000 
C      39.34200000      24.33900000      37.10100000 
C      38.45200000      24.40100000      35.88500000 
C      38.56600000      25.73800000      35.16000000 
O      38.74900000      25.75700000      33.98100000 
N      38.48900000      26.87500000      35.89800000 
H      38.82900000      21.61100000      36.55500000 
H      39.80300000      23.17300000      38.81800000 
H      39.27600000      25.27300000      37.77600000 
H      40.40100000      24.29600000      36.78400000 
H      38.61700000      23.64400000      35.22900000 
H      37.40600000      24.37700000      36.25300000 
H      38.33300000      26.85300000      36.87900000 
H      38.56500000      27.69400000      35.46200000 
N      37.00900000      24.12200000      38.75400000 
C      35.70300000      23.97200000      39.29900000 
C      34.81000000      24.98300000      38.80100000 
O      35.02700000      25.71100000      37.87000000 
C      35.77200000      23.92000000      40.85200000 
C      34.82000000      22.84700000      41.35100000 
O      33.80200000      23.11800000      41.97600000 
N      35.08700000      21.54500000      40.98100000 
H      37.36000000      25.02400000      38.56100000 
H      35.33200000      23.05400000      38.93700000 
H      36.72600000      23.60400000      41.12900000 
H      35.52700000      24.76400000      41.29300000 
H      34.52200000      20.86400000      41.20800000 
H      35.89800000      21.40900000      40.40300000 
N      33.58000000      25.07100000      39.48600000 
C      32.52200000      25.90100000      39.10000000 
C      32.48300000      27.18100000      39.90800000 
O      31.56200000      27.95600000      39.77700000 
C      31.27300000      25.11900000      39.29200000 
O      31.22800000      24.73900000      40.62500000 
H      33.43400000      24.46700000      40.25200000 
H      32.61600000      26.19100000      38.05500000 
H      30.36100000      25.78700000      39.09000000 
H      31.23200000      24.28800000      38.62800000 
H      30.75400000      23.90500000      40.81800000 
N      33.43500000      27.37600000      40.71200000 
C      33.52300000      28.43600000      41.70000000 
C      34.95500000      28.97100000      41.65100000 
O      35.91200000      28.32200000      41.76500000 
C      33.29500000      27.88500000      43.08700000 
O      32.00400000      27.28700000      43.03300000 
C      33.39500000      28.94200000      44.13000000 
H      34.21100000      26.64800000      40.82000000 
H      32.79100000      29.16000000      41.47500000 
H      34.04900000      27.11300000      43.28100000 
H      31.87000000      26.66500000      43.74800000 
H      33.20900000      28.48000000      45.16900000 
H      34.34300000      29.46300000      44.17000000 
H      32.60100000      29.61600000      43.98000000 
N      34.94700000      30.38600000      41.29100000 
C      36.29400000      31.02300000      41.15700000 
C      36.47300000      31.79900000      42.44100000 
O      35.82400000      31.62600000      43.47400000 
C      36.32300000      31.88200000      39.95900000 
C      35.38500000      32.98800000      39.91200000 
O      35.60400000      34.01700000      39.20300000 
O      34.24500000      32.87900000      40.61100000 
H      34.24000000      30.87200000      41.18000000 
H      37.04500000      30.27300000      41.14900000 
H      37.29900000      32.23300000      39.75100000 
H      36.05400000      31.20000000      39.08300000 
H      36.28685932      31.98863424      48.14051505 
H      31.77358616      26.89149825      49.81362538 
H      40.82062167      31.11636767      38.42471083 
H      39.61863756      31.70166472      36.65294553 
H      23.39702310      17.99472204      44.89643059 
H      22.90227107      16.76185696      41.04986969 
H      24.48013717      15.95117527      38.41141816 
H      24.01794277      15.18377048      34.45808533 
H      33.51977993      19.24745262      29.11804121 
H      21.65432470      22.27206104      44.11849397 
H      21.33363152      26.64541080      41.74185151 
H      20.93775743      25.07021920      38.73135837 
H      21.73093008      23.39168693      33.45497290 
H      36.95636137      21.40130010      33.64370296 
H      40.26352068      21.97213728      36.97011291 
H      37.16385098      32.51979124      42.49743508 
