600
Properties=species:S:1:pos:R:3 pbc="F F F"
N      43.28100000      38.59100000      49.02200000 
C      42.51700000      37.59000000      48.32100000 
C      41.59200000      36.90100000      49.31000000 
O      41.89300000      36.72100000      50.49800000 
C      43.41200000      36.55100000      47.62400000 
C      44.40500000      37.26400000      46.69400000 
C      45.21900000      36.30100000      45.84100000 
N      46.05100000      37.10200000      44.93000000 
C      47.03800000      36.65800000      44.18300000 
N      47.73000000      37.48400000      43.40500000 
N      47.40700000      35.35800000      44.22300000 
H      43.82000000      38.26600000      49.83100000 
H      41.93000000      38.10200000      47.58500000 
H      43.94500000      35.95700000      48.36400000 
H      42.77700000      35.87500000      47.05500000 
H      43.85400000      37.93200000      46.03200000 
H      45.08400000      37.85300000      47.28100000 
H      45.86200000      35.68400000      46.47000000 
H      44.58500000      35.64200000      45.26300000 
H      45.79800000      38.04100000      44.80700000 
H      47.51300000      38.44700000      43.39400000 
H      48.44800000      37.17000000      42.81000000 
H      46.87200000      34.68300000      44.69600000 
H      48.17200000      35.03100000      43.68400000 
N      36.15900000      31.13300000      48.54700000 
C      34.78500000      30.67300000      48.73200000 
C      34.73400000      29.20100000      48.32800000 
O      35.38600000      28.78800000      47.36900000 
C      33.70600000      31.47300000      47.97900000 
C      34.15000000      32.19400000      46.68900000 
C      32.95800000      32.29700000      45.71100000 
N      32.95000000      33.55800000      44.97200000 
C      32.74800000      33.73400000      43.67900000 
N      32.42400000      32.72400000      42.88100000 
N      32.83600000      34.94000000      43.12300000 
H      36.61800000      30.75600000      47.73400000 
H      34.58600000      30.74000000      49.79500000 
H      32.89600000      30.79200000      47.74800000 
H      33.29000000      32.20400000      48.64200000 
H      34.53100000      33.17500000      46.93300000 
H      34.96000000      31.66500000      46.19100000 
H      33.03800000      31.50900000      45.00200000 
H      32.02800000      32.21000000      46.23000000 
H      33.04900000      34.41800000      45.52300000 
H      32.19900000      31.83300000      43.21400000 
H      32.71000000      32.76700000      41.88900000 
H      33.16100000      35.72400000      43.66000000 
H      32.57600000      35.10300000      42.19300000 
N      30.66700000      34.63000000      36.00900000 
C      31.94600000      33.90400000      35.90500000 
C      31.83000000      32.75900000      34.92400000 
O      32.79200000      32.53700000      34.13700000 
C      32.40000000      33.42100000      37.27900000 
H      30.20100000      34.62000000      36.87800000 
H      32.68600000      34.57600000      35.49600000 
H      33.34600000      32.89700000      37.17500000 
H      32.53300000      34.25700000      37.94900000 
H      31.67500000      32.73400000      37.70800000 
N      31.98800000      34.35000000      31.34000000 
C      33.31200000      34.68400000      30.86200000 
C      34.03900000      33.49400000      30.22100000 
O      34.85100000      33.69300000      29.33600000 
C      34.12600000      35.20200000      32.06200000 
C      35.51500000      35.69500000      31.65500000 
O      36.50800000      35.06300000      32.12900000 
O      35.57100000      36.68400000      30.87500000 
H      31.74800000      34.49200000      32.28700000 
H      33.25300000      35.44100000      30.10400000 
H      33.58900000      36.03100000      32.49100000 
H      34.21500000      34.41500000      32.81000000 
N      33.72800000      32.26900000      30.72600000 
C      34.46100000      31.08100000      30.27700000 
C      33.50600000      30.03400000      29.66200000 
O      33.66200000      28.85000000      29.95300000 
C      35.27200000      30.46300000      31.40500000 
O      34.47700000      29.88600000      32.44200000 
H      33.05500000      32.16300000      31.41000000 
H      35.13500000      31.37500000      29.51200000 
H      35.96000000      29.72400000      31.00500000 
H      35.86400000      31.25800000      31.88600000 
H      34.06800000      29.07200000      32.13900000 
N      41.66000000      28.51500000      24.37000000 
C      43.10500000      28.68700000      24.65100000 
C      43.19100000      29.68000000      25.82100000 
O      42.96600000      30.88500000      25.66800000 
C      43.91300000      29.14700000      23.42600000 
C      45.34100000      28.54800000      23.39800000 
C      45.27900000      27.01100000      23.17400000 
C      46.16800000      29.20900000      22.27800000 
H      41.05500000      29.25300000      24.61700000 
H      43.45600000      27.73900000      24.96900000 
H      43.40100000      28.81900000      22.52600000 
H      43.97500000      30.23900000      23.39500000 
H      45.82100000      28.74400000      24.34700000 
H      46.27200000      26.61700000      22.97500000 
H      44.88600000      26.49800000      24.04900000 
H      44.64200000      26.79000000      22.33700000 
H      47.16000000      28.79400000      22.23900000 
H      45.68500000      29.05700000      21.32200000 
H      46.24600000      30.28700000      22.45300000 
N      43.45600000      29.09900000      26.97800000 
C      43.58900000      29.80500000      28.24300000 
C      45.08000000      29.91400000      28.54200000 
O      45.88400000      29.08000000      28.09300000 
C      42.89700000      29.00300000      29.37800000 
C      41.36800000      29.07500000      29.44900000 
C      40.64300000      28.85900000      28.11400000 
C      40.88900000      28.03000000      30.45700000 
H      43.59300000      28.10800000      27.00900000 
H      43.15200000      30.79500000      28.16200000 
H      43.19800000      27.98500000      29.28400000 
H      43.29300000      29.36400000      30.33200000 
H      41.09600000      30.07600000      29.80900000 
H      39.57400000      28.84500000      28.28100000 
H      40.85700000      29.64400000      27.40400000 
H      40.93800000      27.91500000      27.68200000 
H      39.81100000      28.10900000      30.63200000 
H      41.09500000      27.02800000      30.07300000 
H      41.39200000      28.12700000      31.41300000 
N      45.48600000      30.91400000      29.32900000 
C      46.88600000      31.09100000      29.70900000 
C      47.02000000      30.75300000      31.18500000 
O      46.21900000      31.13600000      32.02900000 
C      47.39200000      32.52500000      29.35500000 
C      46.67700000      33.66300000      30.10500000 
C      48.90100000      32.65200000      29.52100000 
H      44.79100000      31.56300000      29.69800000 
H      47.45300000      30.39600000      29.12300000 
H      47.14700000      32.62200000      28.28900000 
H      47.01300000      34.61900000      29.70500000 
H      45.60300000      33.62800000      29.99700000 
H      46.91600000      33.63700000      31.15000000 
H      49.23800000      33.58800000      29.12500000 
H      49.17600000      32.60400000      30.56800000 
H      49.42400000      31.85300000      28.99900000 
N      48.07500000      29.95000000      31.50600000 
C      48.32600000      29.52400000      32.87900000 
C      49.46400000      30.35100000      33.44300000 
O      50.64900000      30.14600000      33.17100000 
C      48.55400000      27.99000000      33.02400000 
C      49.63600000      27.45600000      32.07500000 
C      48.86700000      27.60400000      34.47400000 
H      48.68200000      29.64700000      30.78700000 
H      47.44300000      29.75800000      33.43700000 
H      47.61300000      27.55200000      32.73500000 
H      49.69900000      26.37800000      32.21100000 
H      49.43000000      27.65600000      31.04500000 
H      50.58900000      27.86500000      32.33200000 
H      48.80200000      26.50700000      34.56100000 
H      49.86300000      27.92300000      34.76600000 
H      48.15000000      28.04200000      35.16700000 
N      49.08900000      31.34300000      34.28500000 
C      50.04600000      32.17500000      35.00300000 
C      49.53200000      32.27200000      36.44200000 
O      49.69500000      31.32600000      37.21500000 
C      50.30400000      33.49400000      34.32800000 
C      51.28300000      34.35800000      35.10400000 
O      52.22400000      33.73300000      35.70300000 
O      51.10600000      35.60700000      35.11500000 
H      48.12800000      31.54600000      34.36600000 
H      50.96900000      31.62200000      35.05600000 
H      50.71100000      33.30000000      33.34800000 
H      49.38100000      34.04900000      34.13500000 
N      48.85900000      33.36700000      36.75400000 
C      48.15400000      33.51600000      38.02600000 
C      46.64900000      33.30000000      37.85800000 
O      45.98200000      33.03800000      38.88000000 
C      48.43800000      34.89100000      38.67100000 
C      48.06200000      36.11100000      37.85800000 
C      48.22900000      37.46200000      38.53900000 
O      48.69300000      37.49300000      39.73800000 
O      47.90700000      38.48700000      37.86100000 
H      48.82000000      34.12500000      36.11400000 
H      48.50600000      32.75700000      38.69000000 
H      47.91500000      34.92000000      39.63000000 
H      49.49100000      34.92100000      38.92300000 
H      48.66400000      36.16200000      36.94300000 
H      47.03700000      36.06600000      37.53500000 
N      46.09900000      33.41400000      36.64900000 
C      44.66500000      33.46900000      36.46600000 
C      43.97900000      32.10400000      36.30700000 
O      42.79000000      32.03600000      36.59300000 
C      44.30700000      34.35500000      35.28200000 
O      45.03800000      33.76700000      34.17400000 
C      44.66300000      35.80700000      35.46300000 
H      46.65900000      33.56000000      35.85400000 
H      44.22300000      33.89800000      37.36100000 
H      43.26600000      34.25600000      35.11100000 
H      44.89100000      34.20900000      33.33700000 
H      44.35200000      36.37800000      34.58400000 
H      44.13600000      36.22500000      36.31600000 
H      45.71100000      35.96000000      35.60200000 
N      44.68400000      31.05100000      35.89100000 
C      44.01700000      29.74900000      35.75500000 
C      43.80600000      29.14700000      37.14900000 
O      42.76100000      28.52600000      37.40400000 
C      44.76900000      28.77300000      34.82500000 
C      43.88300000      28.23700000      33.68100000 
C      44.72900000      27.53100000      32.61400000 
C      42.79900000      27.29600000      34.20400000 
H      45.64600000      31.14900000      35.63300000 
H      43.03500000      29.92800000      35.37600000 
H      45.60800000      29.31000000      34.38800000 
H      45.19200000      27.95200000      35.38100000 
H      43.41300000      29.08900000      33.21200000 
H      44.09200000      27.16200000      31.83100000 
H      45.45400000      28.19000000      32.18800000 
H      45.25500000      26.66400000      33.05200000 
H      42.17700000      26.93100000      33.36200000 
H      43.23000000      26.42700000      34.68900000 
H      42.12400000      27.77700000      34.91000000 
N      44.75600000      29.33700000      38.04400000 
C      44.63400000      28.80500000      39.41600000 
C      43.54500000      29.54600000      40.22400000 
O      43.07900000      29.02000000      41.19700000 
C      45.98400000      28.82800000      40.14400000 
C      46.93500000      27.67000000      39.82400000 
C      46.33700000      26.30700000      40.23300000 
C      47.44000000      27.64400000      38.38100000 
H      45.57500000      29.82600000      37.82600000 
H      44.25600000      27.79300000      39.36500000 
H      46.47500000      29.78600000      39.94100000 
H      45.77300000      28.81100000      41.21200000 
H      47.80100000      27.83200000      40.47000000 
H      47.09200000      25.52600000      40.13000000 
H      45.98400000      26.31300000      41.24600000 
H      45.50300000      26.03400000      39.57900000 
H      48.26700000      26.91600000      38.29500000 
H      46.67500000      27.34800000      37.68900000 
H      47.83300000      28.61300000      38.07700000 
N      43.18600000      30.77600000      39.74700000 
C      42.10000000      31.54200000      40.34500000 
C      40.79000000      31.29100000      39.58800000 
O      39.74200000      31.95800000      39.94500000 
C      42.41800000      33.03800000      40.34600000 
C      43.52400000      33.38700000      41.34500000 
C      43.78700000      34.88100000      41.42600000 
O      43.31200000      35.64900000      40.56500000 
O      44.52800000      35.27100000      42.41000000 
H      43.69900000      31.17700000      39.03100000 
H      41.91800000      31.18400000      41.33500000 
H      42.69500000      33.35500000      39.35400000 
H      41.50900000      33.57200000      40.61600000 
H      43.26200000      33.04200000      42.33600000 
H      44.44600000      32.91300000      41.07900000 
N      40.74300000      30.39800000      38.63700000 
C      39.52500000      29.98600000      37.93900000 
C      38.88600000      31.13300000      37.12000000 
O      37.68700000      31.15600000      36.90400000 
C      38.47800000      29.38400000      38.89300000 
C      38.82000000      27.98900000      39.37300000 
O      38.28600000      26.99900000      38.81200000 
N      39.64800000      27.83700000      40.39200000 
H      41.56100000      29.90200000      38.35900000 
H      39.81700000      29.25100000      37.20600000 
H      38.37900000      30.04100000      39.74100000 
H      37.53300000      29.32300000      38.38800000 
H      39.86800000      26.94100000      40.72000000 
H      40.06300000      28.61300000      40.87200000 
N      39.73600000      32.04500000      36.58600000 
C      39.14900000      33.08500000      35.73800000 
C      40.19500000      33.65100000      34.75500000 
O      40.56200000      34.82800000      34.80700000 
C      38.48700000      34.20200000      36.53800000 
C      37.18500000      34.69400000      35.95000000 
O      37.01600000      35.88300000      35.62900000 
N      36.22900000      33.75600000      35.80200000 
H      40.70500000      32.02900000      36.76200000 
H      38.40200000      32.60900000      35.13100000 
H      38.27200000      33.82500000      37.54600000 
H      39.14400000      35.04300000      36.65300000 
H      35.36200000      34.01000000      35.38600000 
H      36.36600000      32.82300000      36.10000000 
N      40.65400000      32.82600000      33.79800000 
C      41.66900000      33.22900000      32.83000000 
C      41.11000000      33.93100000      31.61100000 
O      39.88300000      34.06700000      31.41300000 
C      42.30100000      31.89700000      32.45400000 
C      41.11700000      30.93500000      32.47200000 
C      40.31800000      31.37100000      33.68700000 
H      42.37100000      33.89900000      33.30000000 
H      42.82500000      31.90900000      31.50400000 
H      43.03900000      31.61200000      33.21800000 
H      40.53700000      31.04200000      31.57600000 
H      41.41400000      29.89500000      32.56400000 
H      39.25200000      31.24700000      33.54300000 
H      40.61600000      30.85600000      34.56600000 
N      42.03200000      34.38300000      30.75500000 
C      41.70000000      34.92000000      29.44500000 
C      41.37700000      33.77500000      28.47800000 
O      41.53600000      32.59600000      28.78400000 
C      42.82100000      35.77400000      28.86200000 
O      43.85000000      34.82600000      28.45800000 
C      43.40500000      36.81700000      29.82000000 
H      42.99600000      34.17500000      30.91500000 
H      40.81500000      35.54200000      29.54600000 
H      42.45500000      36.26000000      27.99000000 
H      44.60500000      35.23400000      28.06200000 
H      44.13200000      37.40200000      29.29600000 
H      42.61300000      37.47400000      30.16500000 
H      43.87300000      36.35200000      30.66700000 
N      40.89400000      34.15800000      27.27300000 
C      40.48100000      33.20000000      26.23700000 
C      41.04700000      33.62000000      24.88600000 
O      40.42500000      33.37900000      23.83400000 
C      38.98900000      32.88800000      26.25700000 
C      37.95100000      34.02000000      26.41400000 
C      37.80600000      34.51900000      27.88600000 
C      38.12800000      35.20700000      25.46100000 
H      40.68900000      35.09800000      27.13400000 
H      41.01300000      32.27800000      26.45900000 
H      38.77400000      32.35100000      25.33300000 
H      38.81900000      32.18100000      27.06000000 
H      37.00600000      33.56500000      26.16500000 
H      36.89300000      35.11400000      27.97100000 
H      37.71100000      33.67200000      28.55700000 
H      38.63100000      35.11700000      28.18700000 
H      37.28400000      35.89600000      25.56000000 
H      39.02900000      35.77600000      25.67000000 
H      38.17300000      34.87900000      24.41900000 
N      42.24900000      34.20200000      24.87100000 
C      42.88300000      34.69400000      23.65200000 
C      43.30100000      33.55700000      22.72000000 
O      44.19500000      32.77500000      23.00200000 
C      44.15700000      35.42400000      24.08200000 
C      44.99900000      35.99100000      22.89600000 
C      44.48400000      37.36900000      22.46500000 
C      46.48700000      36.01100000      23.26100000 
H      42.72800000      34.32300000      25.74000000 
H      42.20400000      35.36700000      23.15600000 
H      43.90300000      36.24300000      24.75700000 
H      44.78300000      34.72700000      24.64100000 
H      44.89100000      35.32100000      22.04900000 
H      45.01900000      37.72400000      21.58800000 
H      43.42700000      37.34000000      22.21500000 
H      44.62100000      38.10200000      23.26400000 
H      47.08200000      36.35900000      22.41800000 
H      46.67700000      36.68200000      24.10900000 
H      46.82800000      35.02400000      23.52600000 
N      51.74200000      37.04300000      24.91600000 
C      51.83700000      36.54600000      26.28700000 
C      52.15200000      35.07700000      26.38400000 
O      51.69000000      34.42800000      27.32600000 
H      51.89200000      36.41800000      24.16600000 
H      52.60900000      37.09800000      26.83300000 
H      50.91900000      36.69500000      26.81500000 
N      54.38600000      30.62700000      30.77100000 
C      52.95100000      30.83300000      30.59400000 
C      52.43600000      30.02400000      29.39800000 
O      52.12100000      30.63400000      28.32500000 
C      52.58000000      32.29700000      30.37800000 
C      53.04900000      33.30700000      31.43400000 
C      52.35400000      34.63700000      31.08500000 
N      52.60200000      35.67600000      32.07900000 
C      52.02100000      36.88700000      32.05200000 
N      51.23900000      37.22100000      31.01900000 
N      52.25100000      37.75900000      33.03000000 
H      54.96600000      30.62900000      29.95000000 
H      52.46500000      30.47400000      31.47900000 
H      52.96400000      32.62000000      29.41900000 
H      51.51300000      32.34300000      30.31300000 
H      52.76200000      33.00300000      32.43400000 
H      54.11900000      33.44100000      31.41800000 
H      52.71100000      34.98300000      30.11900000 
H      51.29700000      34.48500000      31.01600000 
H      53.19700000      35.47800000      32.86300000 
H      51.06500000      36.61500000      30.27500000 
H      50.79500000      38.10500000      31.00700000 
H      52.68200000      37.46700000      33.87300000 
H      51.82500000      38.66400000      33.01400000 
N      52.29400000      28.70700000      29.49900000 
C      51.80300000      27.93600000      28.35900000 
C      50.26400000      28.00400000      28.16200000 
O      49.53200000      28.77500000      28.80300000 
C      52.34100000      26.52600000      28.62200000 
C      52.42600000      26.44800000      30.13600000 
C      52.85500000      27.85300000      30.57700000 
H      52.21000000      28.33700000      27.44100000 
H      51.71200000      25.74200000      28.19900000 
H      53.35300000      26.46600000      28.17900000 
H      51.46900000      26.20500000      30.57900000 
H      53.13700000      25.69700000      30.48100000 
H      52.49600000      28.14300000      31.53900000 
H      53.94200000      27.93600000      30.54100000 
N      49.79100000      27.22500000      27.17400000 
C      48.50800000      27.32600000      26.52400000 
C      47.67800000      26.08600000      26.81200000 
O      48.14200000      24.95000000      26.77600000 
C      48.65400000      27.56200000      24.99000000 
C      49.84100000      26.84700000      24.31000000 
C      49.44400000      26.41700000      22.88100000 
C      51.09300000      27.74300000      24.22600000 
H      50.43500000      26.57900000      26.75900000 
H      48.01600000      28.19000000      26.96900000 
H      47.72400000      27.26700000      24.54300000 
H      48.74000000      28.61900000      24.84500000 
H      50.06800000      25.93000000      24.85500000 
H      50.27500000      25.89200000      22.41500000 
H      48.59800000      25.75200000      22.88200000 
H      49.21500000      27.27700000      22.26200000 
H      51.94100000      27.15700000      23.86900000 
H      50.91900000      28.56400000      23.53900000 
H      51.35000000      28.15500000      25.20400000 
N      46.36300000      26.32600000      27.13000000 
C      45.50300000      25.30600000      27.73200000 
C      44.15900000      25.27200000      27.01400000 
O      43.61000000      26.35600000      26.68900000 
C      45.31800000      25.64700000      29.24100000 
C      44.43700000      24.61300000      29.95800000 
C      46.66800000      25.77100000      29.93900000 
H      46.06200000      27.26900000      27.23100000 
H      45.97100000      24.34400000      27.62400000 
H      44.81100000      26.60200000      29.29000000 
H      44.34700000      24.86100000      30.98500000 
H      43.45200000      24.57000000      29.54400000 
H      44.86800000      23.60800000      29.89200000 
H      46.51500000      25.91600000      31.00300000 
H      47.28100000      24.89200000      29.80800000 
H      47.22200000      26.62800000      29.58000000 
N      40.30800000      21.15700000      32.20700000 
C      41.00700000      21.61300000      31.01600000 
C      42.28600000      20.81900000      30.84200000 
O      42.89800000      20.32000000      31.79700000 
C      41.23200000      23.13000000      31.07100000 
O      42.20900000      23.39200000      32.08300000 
C      39.95500000      23.91500000      31.33800000 
H      40.83100000      21.02800000      33.05600000 
H      40.37800000      21.41400000      30.19000000 
H      41.64400000      23.42000000      30.10100000 
H      42.34500000      24.32200000      32.23700000 
H      40.14600000      24.97400000      31.21200000 
H      39.16300000      23.62300000      30.65400000 
H      39.62400000      23.74800000      32.34800000 
N      46.14900000      20.51400000      28.82900000 
C      47.07400000      21.46700000      28.26900000 
C      47.48400000      21.03300000      26.86500000 
O      47.68100000      19.83900000      26.60500000 
C      48.34000000      21.61200000      29.14800000 
C      48.16600000      22.26600000      30.51200000 
C      47.03900000      22.06400000      31.30700000 
C      49.16800000      23.06900000      30.99900000 
C      46.93400000      22.67600000      32.55700000 
C      49.10100000      23.64400000      32.25200000 
C      47.95600000      23.46300000      33.03500000 
H      46.44700000      19.75300000      29.36000000 
H      46.60000000      22.42900000      28.22000000 
H      48.79600000      20.63500000      29.23700000 
H      49.04800000      22.22300000      28.57600000 
H      46.23900000      21.45300000      30.98000000 
H      50.04600000      23.26700000      30.40200000 
H      46.05400000      22.51600000      33.14400000 
H      49.91800000      24.26200000      32.62100000 
H      47.89100000      23.92800000      34.00500000 
N      44.50000000      20.00100000      34.26400000 
C      44.06900000      20.51600000      35.57000000 
C      42.61200000      20.24200000      35.75200000 
O      41.80100000      20.30200000      34.81500000 
C      44.41200000      22.01400000      35.78600000 
O      44.30000000      22.17600000      37.20600000 
C      43.55000000      23.00500000      35.04500000 
H      43.86300000      20.13900000      33.48900000 
H      44.64500000      19.98400000      36.30400000 
H      45.44800000      22.13900000      35.47900000 
H      44.28000000      23.10600000      37.46400000 
H      43.87000000      24.01700000      35.29700000 
H      43.60000000      22.89500000      33.97200000 
H      42.49500000      22.91900000      35.33800000 
N      39.62100000      21.74800000      37.69500000 
C      39.21000000      22.98000000      38.34100000 
C      37.78200000      22.82400000      38.86300000 
O      37.41200000      21.70200000      39.25000000 
C      39.49700000      24.21000000      37.45400000 
C      38.69300000      24.23500000      36.15200000 
C      38.88500000      25.48900000      35.35800000 
O      39.33400000      25.46500000      34.19400000 
N      38.50900000      26.67400000      35.89700000 
H      39.21300000      21.53200000      36.81800000 
H      39.82400000      23.07600000      39.23900000 
H      39.33000000      25.09100000      38.04200000 
H      40.56500000      24.18500000      37.23300000 
H      38.96200000      23.42600000      35.52000000 
H      37.63300000      24.14900000      36.38000000 
H      38.20600000      26.73400000      36.87000000 
H      38.60500000      27.49600000      35.38800000 
N      36.98900000      23.89300000      38.95900000 
C      35.66000000      23.75500000      39.58300000 
C      34.76800000      24.86700000      39.04500000 
O      35.11700000      25.64300000      38.19600000 
C      35.78300000      23.72800000      41.13600000 
C      35.12500000      22.53600000      41.80100000 
O      34.21200000      22.72300000      42.64800000 
N      35.56800000      21.32000000      41.47200000 
H      37.28000000      24.79600000      38.70600000 
H      35.24800000      22.82900000      39.22600000 
H      36.82100000      23.70200000      41.38100000 
H      35.37600000      24.61500000      41.56900000 
H      35.18100000      20.53500000      41.90300000 
H      36.27200000      21.22200000      40.77700000 
N      33.39600000      27.29500000      40.88100000 
C      33.38400000      28.39500000      41.83100000 
C      34.77100000      29.04200000      41.82700000 
O      35.76000000      28.36400000      42.18900000 
C      33.01300000      27.82300000      43.22100000 
O      31.64200000      27.40400000      43.07500000 
C      33.12600000      28.80300000      44.35200000 
H      33.95600000      26.53300000      41.11000000 
H      32.63800000      29.10300000      41.54400000 
H      33.63300000      26.95800000      43.39400000 
H      31.40200000      26.70100000      43.67900000 
H      32.82500000      28.31200000      45.28800000 
H      34.13100000      29.17300000      44.48300000 
H      32.44500000      29.63100000      44.18500000 
N      34.83000000      30.29900000      41.39300000 
C      36.07700000      31.03100000      41.26700000 
C      36.42200000      31.79300000      42.56000000 
O      35.68400000      31.72700000      43.56800000 
C      36.00300000      31.98000000      40.04800000 
C      34.92300000      33.05600000      40.11800000 
O      35.21100000      34.20100000      39.75000000 
O      33.76000000      32.65700000      40.48500000 
H      34.02000000      30.79800000      41.14800000 
H      36.86600000      30.33600000      41.12200000 
H      36.95700000      32.45900000      39.90400000 
H      35.82500000      31.36800000      39.18100000 
N      37.53400000      32.51200000      42.53700000 
C      37.95000000      33.35200000      43.64900000 
C      38.10700000      34.79200000      43.13400000 
O      38.47200000      35.03400000      42.02300000 
C      39.28000000      32.92800000      44.31800000 
C      39.51500000      31.44400000      44.39600000 
C      38.62100000      30.53800000      44.98200000 
C      40.68700000      30.89700000      43.85600000 
C      38.85000000      29.19800000      45.02100000 
C      40.93900000      29.55200000      43.87600000 
C      40.04200000      28.67600000      44.45000000 
O      40.21700000      27.32200000      44.49200000 
H      38.14300000      32.50200000      41.73700000 
H      37.15600000      33.31300000      44.38200000 
H      40.10900000      33.36800000      43.76000000 
H      39.30900000      33.36200000      45.30200000 
H      37.70000000      30.92300000      45.41600000 
H      41.40300000      31.56900000      43.40900000 
H      38.16800000      28.51300000      45.46600000 
H      41.84700000      29.15900000      43.42900000 
H      40.99000000      27.01900000      44.01400000 
N      37.81200000      35.76600000      44.04600000 
C      37.79500000      37.18100000      43.72500000 
C      38.94000000      37.91200000      44.39800000 
O      39.27200000      37.68100000      45.59300000 
C      36.39200000      37.74000000      44.14200000 
C      36.34600000      39.27400000      44.31100000 
C      35.36100000      37.31200000      43.09400000 
H      37.51600000      35.49400000      44.95700000 
H      37.90100000      37.27800000      42.65200000 
H      36.13500000      37.29700000      45.10000000 
H      35.33300000      39.56300000      44.57200000 
H      36.99100000      39.61700000      45.09400000 
H      36.61500000      39.78900000      43.38900000 
H      34.37100000      37.57100000      43.41500000 
H      35.54900000      37.81000000      42.14300000 
H      35.40000000      36.25000000      42.92000000 
N      39.55400000      38.83600000      43.64800000 
C      40.58500000      39.74400000      44.11400000 
C      39.95200000      41.05400000      44.56800000 
O      38.92500000      41.51700000      44.00600000 
C      41.57100000      40.05500000      42.94700000 
C      42.44700000      38.87000000      42.57400000 
C      43.39400000      39.24700000      41.43300000 
O      42.84600000      39.56100000      40.34000000 
O      44.64300000      39.24700000      41.66300000 
H      39.20600000      38.99100000      42.72300000 
H      41.11100000      39.29400000      44.92400000 
H      40.99600000      40.37400000      42.08400000 
H      42.18700000      40.90000000      43.25100000 
H      43.04600000      38.56400000      43.43700000 
H      41.84900000      38.03500000      42.26600000 
H      43.87792445      38.96175502      48.45966387 
H      40.69686492      36.57058584      49.01073478 
H      36.16685930      32.02881994      48.46071637 
H      34.16618070      28.56011665      48.84457505 
H      30.79986010      35.50068114      35.82389853 
H      31.00366909      32.19604179      34.90802256 
H      31.37560045      34.83189404      30.88972793 
H      32.77856612      30.32483919      29.04050783 
H      41.53797326      28.39498084      23.48642495 
H      42.83688316      33.43318025      21.84292291 
H      50.91659939      37.37164154      24.77209528 
H      52.72752171      34.64224285      25.69135220 
H      54.72036034      31.27718828      31.29584127 
H      43.72473940      24.39531708      26.80701016 
H      39.66586148      21.74919571      32.42370802 
H      42.66818878      20.68055705      29.92834510 
H      45.58280294      20.93674012      29.38641518 
H      47.59623632      21.71604969      26.14330330 
H      45.26928696      20.40078914      34.02240901 
H      42.25782841      19.99958515      36.65521510 
H      40.50818255      21.76885436      37.54509261 
H      33.83969096      24.97899614      39.39954082 
H      32.56214365      26.96942960      40.78779327 
H      40.35248463      41.56584081      45.32802043 
