 177 
 
N                17.2252922615       40.0161671108      117.1797481539
C                17.2856454528       41.4520535854      116.9650923114
C                16.5728336326       41.8020836392      115.6596867150
O                15.6649534954       42.6109910207      115.6000271218
C                18.7411835345       41.9279128193      116.8839583404
H                16.7704645868       39.4397216823      116.4779462097
H                16.7761521400       41.9689760492      117.7879367005
H                18.7583975790       42.9860076233      116.6425824049
H                19.2185297087       41.7690507502      117.8458755350
H                19.2785839405       41.3740655425      116.1196514834
N                17.1111496036       41.1969706956      114.5840606399
C                16.7261066719       41.5078580991      113.2267698617
C                16.5623376559       40.2118289345      112.4278422596
O                17.3656649412       39.2993419207      112.5760096286
C                17.8537532231       42.3254566542      112.5611233270
C                18.2474155311       43.5264513027      113.4219726707
O                17.4276974436       44.2817777252      113.9220646157
N                19.5663550161       43.6933111308      113.5827351934
H                17.7272971730       40.4022737128      114.6902630394
H                15.7987444404       42.0827549187      113.2721532074
H                18.7092866876       41.6703423271      112.3974136647
H                17.4974464112       42.6891173506      111.5969394378
H                19.8911197969       44.5071760286      114.0831315008
H                20.2321211965       43.1278869478      113.0859368983
N                15.5676396512       40.2094814025      111.5377063293
C                15.3601075872       39.1304166288      110.6012919534
C                15.4115763174       39.6618109704      109.1608221025
O                14.8482028764       40.7029479225      108.8478644070
C                13.9777757077       38.4857882424      110.7898161572
O                13.7410773238       37.6476289298      109.6808022599
H                14.8644635358       40.9450766048      111.5184170309
H                16.1492743759       38.3907909282      110.7491370071
H                13.9564986160       37.9195592136      111.7314072451
H                13.2330901912       39.2922771838      110.8417793870
H                12.8677837234       37.2459409821      109.7582257925
N                16.1337346801       38.9157461386      108.3310591127
C                16.2214123546       39.1284558624      106.9059718467
C                15.8705992878       37.8286532575      106.1829087844
O                16.0832380701       36.7368660990      106.7063428397
C                17.6503926028       39.5320164795      106.4965686249
C                18.1948967810       40.7273401519      107.3029616299
C                18.9557469383       40.2768796116      108.5492942482
C                19.1182388325       41.5683196715      106.4236312347
H                16.5197317332       38.0356925858      108.6570640071
H                15.5069449046       39.9050847476      106.6244691459
H                18.3000401964       38.6631762470      106.6219484539
H                17.6050503876       39.7695532371      105.4326114038
H                17.3399180501       41.3383960102      107.6089180542
H                19.2723537704       41.1483258360      109.1161672153
H                18.3439507990       39.6435635016      109.1862104488
H                19.8357457583       39.7094121371      108.2557384236
H                19.4672033554       42.4415791786      106.9664300370
H                19.9784087714       40.9791065001      106.1166798145
H                18.5840250158       41.8922075911      105.5381135687
N                13.1189628304       42.2817495199      105.1414858624
C                13.5891144550       42.3944289353      106.5089328632
C                12.4840836732       42.9297019121      107.4173936882
O                11.7535587334       43.8496707871      107.0704803299
C                14.8132127133       43.3077141419      106.6235300590
H                12.6304588972       43.0669396904      104.7170050220
H                13.8635687595       41.3863944511      106.8273443421
H                15.2666894168       43.1502015573      107.5975731728
H                15.5316200287       43.0464389671      105.8510886069
H                14.5227291801       44.3478306300      106.5088620518
N                12.4245790606       42.3383910420      108.6169453333
C                11.7315573391       42.9158951667      109.7558662700
C                12.7883098220       42.9987473888      110.8581997069
O                13.2439704197       41.9821423641      111.3808470325
C                10.5377358053       42.0849976680      110.2188927065
H                13.1087492319       41.6204029307      108.8312894533
H                11.4027335606       43.9174553105      109.4597217693
H                10.0351271697       42.6126524891      111.0255589680
H                 9.8454595869       41.9336635467      109.3970755588
H                10.8737135174       41.1194298924      110.5889586511
N                13.2285612738       44.2237556270      111.1323804167
C                14.2515072179       44.4616440469      112.1209479258
C                13.7111827302       45.4390454432      113.1532934099
O                12.6421059764       46.0202145804      112.9821532652
C                15.5706892139       44.9544642508      111.4798849441
C                15.5906513140       46.4706997969      111.2642278944
C                15.8088657425       44.2201047476      110.1590090320
C                16.9786676664       46.9574933833      110.8557505440
H                12.8135985611       45.0500508916      110.7177157868
H                14.4248353443       43.5036689953      112.6253597327
H                16.3571551990       44.7165931571      112.1951418261
H                14.8499886951       46.7332975798      110.5080401501
H                15.3170243851       46.9722824948      112.1963400542
H                16.8345255170       44.3569230220      109.8292448119
H                15.6083849636       43.1540846898      110.2561819957
H                15.1465891102       44.6191726180      109.3933079943
H                17.0264338281       48.0428424100      110.8804498743
H                17.7216456980       46.5802596278      111.5552040800
H                17.2363669309       46.6267292747      109.8542796974
N                14.4602178942       45.6212935737      114.2436694987
C                14.0183138381       46.5764154889      115.2458579036
C                14.2311537410       48.0024189008      114.6907526584
O                15.2872860848       48.6022779138      114.8069988086
C                14.7564253289       46.4246563786      116.5698547255
C                13.9881276326       47.1559441188      117.6867703926
C                12.9503163095       46.2323496236      118.3230614100
C                14.9356963147       47.7023271189      118.7522901218
H                15.3391562679       45.1369854579      114.3736349240
H                12.9409814689       46.4155573063      115.3873010009
H                14.8663951060       45.3645184603      116.8062806141
H                15.7524980145       46.8572439727      116.4519864817
H                13.4709664301       48.0124565475      117.2351401644
H                12.3191911961       46.7882351232      119.0125429927
H                12.3173508449       45.7738892991      117.5664501903
H                13.4501318120       45.4398396137      118.8761648929
H                14.3707029915       48.2312117865      119.5169047248
H                15.4880888097       46.8938921225      119.2257110392
H                15.6428441774       48.3985445671      118.3063522242
N                13.1556554595       48.5183832514      114.0704954212
C                13.1041334716       49.8875187778      113.6249870496
C                12.7341553540       50.1454847511      112.1686344227
O                12.4421491835       51.2842877445      111.8244236218
H                12.3526856240       47.9214649432      113.9208635157
H                12.3872834639       50.4554024750      114.2307367203
H                14.0958364515       50.3212344417      113.7989750762
N                12.7477002781       49.1131402462      111.3175515916
C                12.3782481445       49.2929743972      109.9235615073
C                12.0546123573       47.9224898259      109.3226743348
O                12.4776390914       46.8760459978      109.7989267108
C                13.4907563023       50.0543372194      109.1522324998
C                14.7585885333       49.2150034312      109.0509599040
C                13.0394386750       50.5277163097      107.7722002621
H                12.9508156725       48.1668266838      111.6179082371
H                11.4786919136       49.9229045149      109.9073173980
H                13.7008533878       50.9419150786      109.7579082081
H                15.5254920125       49.7560612360      108.5038458566
H                15.1409527583       48.9882270108      110.0415404467
H                14.5592393187       48.2800649543      108.5311378522
H                13.7880737228       51.2063527629      107.3694289494
H                12.9336111552       49.6966604738      107.0790506304
H                12.0990919039       51.0703900442      107.8342658599
N                11.2560416017       47.9899544133      108.2572373179
C                10.7354812663       46.8820445022      107.4755856860
C                10.9106910201       47.2896444989      106.0079117633
O                10.7242442440       48.4499268710      105.6644415590
C                 9.2485557817       46.7162367123      107.8348674496
C                 8.5022836774       45.6891906628      106.9878944863
C                 7.1033185791       45.4614962766      107.5741098551
C                 6.1647647695       44.7237164114      106.6269102046
N                 5.6569491666       45.6467435894      105.5707150793
H                10.9902186361       48.8973700098      107.8940925682
H                11.2971902431       45.9728966257      107.6991289664
H                 9.2013636404       46.4339093870      108.8878205362
H                 8.7765084859       47.6954552570      107.7259344010
H                 8.4526252547       46.0652731525      105.9656265438
H                 9.0665703375       44.7558964302      106.9748630309
H                 7.2072189262       44.8820381638      108.4898960116
H                 6.6659848730       46.4202054466      107.8578305178
H                 6.6930214431       43.8952925925      106.1551612390
H                 5.3110578546       44.3319386062      107.1800459640
H                 5.0586230212       45.1435845456      104.9031612881
H                 5.1085023788       46.4052146654      106.0026175847
H                 6.4455699306       46.0703971879      105.0598319356
N                11.2485371174       46.3125994274      105.1592116219
C                11.5599169320       46.6022899531      103.7677583748
C                11.4523524751       45.3014121101      102.9710374811
O                11.8201786785       44.2371375798      103.4556357501
C                12.9628602383       47.2628256956      103.6688921574
C                14.0333367009       46.4029454227      104.3367040424
C                13.3381913257       47.5586539018      102.2220083009
H                11.4601158696       45.3806818923      105.5001459665
H                10.8215029736       47.3306013711      103.4136525401
H                12.8801208296       48.2117968065      104.2100983772
H                15.0149016239       46.8326155060      104.1536235963
H                13.8796372045       46.3516911033      105.4127402031
H                14.0166893701       45.3898015086      103.9386178028
H                14.2249391372       48.1856883138      102.1938762356
H                13.5623893167       46.6324685407      101.7006543935
H                12.5354274039       48.0807998699      101.7084269489
H                18.0603712962       39.6862634782      117.2414457954
H                15.4619582778       37.8585362440      105.2707029238
H                13.8180561752       42.1320255718      104.5948129853
H                11.0785333103       45.3125502321      102.0436027533
