403
Properties=species:S:1:pos:R:3 pbc="F F F"
N      50.08200000      29.04600000      43.47500000 
C      49.00800000      29.67400000      44.19700000 
C      49.54800000      30.63600000      45.21200000 
O      50.59400000      30.36400000      45.87700000 
C      48.11400000      28.64200000      44.92100000 
C      47.29000000      27.79600000      43.95600000 
C      46.38300000      26.82800000      44.64800000 
O      46.68100000      25.62500000      44.77900000 
N      45.26400000      27.35300000      45.15700000 
H      50.73600000      28.50700000      44.00700000 
H      48.40200000      30.22000000      43.47500000 
H      48.73500000      28.01900000      45.53500000 
H      47.44500000      29.18200000      45.58500000 
H      46.70300000      28.45100000      43.30800000 
H      47.95300000      27.22100000      43.30700000 
H      45.00100000      28.28400000      45.06100000 
H      44.62600000      26.75100000      45.66700000 
N      44.43900000      42.03100000      48.97200000 
C      44.02600000      40.79700000      49.63700000 
C      43.37400000      39.85500000      48.64000000 
O      42.89400000      40.27100000      47.58400000 
C      43.10000000      41.00500000      50.84100000 
C      41.72500000      41.58300000      50.49900000 
C      40.62400000      41.15900000      51.44500000 
O      39.68700000      41.99000000      51.66600000 
O      40.64000000      39.97500000      51.90500000 
H      43.85700000      42.37800000      48.24300000 
H      44.94100000      40.32100000      49.99600000 
H      42.97300000      40.06300000      51.32800000 
H      43.62400000      41.66400000      51.54600000 
H      41.75200000      42.65700000      50.44500000 
H      41.41300000      41.24600000      49.53000000 
N      43.28100000      38.59100000      49.02200000 
C      42.51700000      37.59000000      48.32100000 
C      41.59200000      36.90100000      49.31000000 
O      41.89300000      36.72100000      50.49800000 
C      43.41200000      36.55100000      47.62400000 
C      44.40500000      37.26400000      46.69400000 
C      45.21900000      36.30100000      45.84100000 
N      46.05100000      37.10200000      44.93000000 
C      47.03800000      36.65800000      44.18300000 
N      47.73000000      37.48400000      43.40500000 
N      47.40700000      35.35800000      44.22300000 
H      43.82000000      38.26600000      49.83100000 
H      41.93000000      38.10200000      47.58500000 
H      43.94500000      35.95700000      48.36400000 
H      42.77700000      35.87500000      47.05500000 
H      43.85400000      37.93200000      46.03200000 
H      45.08400000      37.85300000      47.28100000 
H      45.86200000      35.68400000      46.47000000 
H      44.58500000      35.64200000      45.26300000 
H      45.79800000      38.04100000      44.80700000 
H      47.51300000      38.44700000      43.39400000 
H      48.44800000      37.17000000      42.81000000 
H      46.87200000      34.68300000      44.69600000 
H      48.17200000      35.03100000      43.68400000 
N      40.40200000      36.47700000      48.80500000 
C      39.44700000      35.69900000      49.55700000 
C      39.18900000      34.39000000      48.83500000 
O      39.32300000      34.30300000      47.59000000 
C      38.09700000      36.44100000      49.74300000 
C      38.28100000      37.75500000      50.51000000 
C      36.94200000      38.36200000      50.92300000 
C      37.05000000      39.77300000      51.48900000 
N      37.98700000      39.88100000      52.65100000 
H      40.19200000      36.66600000      47.84900000 
H      39.88100000      35.48500000      50.52600000 
H      37.65700000      36.61600000      48.77100000 
H      37.43800000      35.78100000      50.29200000 
H      38.88900000      37.57000000      51.38500000 
H      38.81800000      38.45800000      49.88000000 
H      36.27700000      38.42400000      50.06800000 
H      36.44800000      37.71800000      51.64500000 
H      37.44000000      40.45300000      50.74900000 
H      36.09600000      40.13700000      51.81700000 
H      38.04900000      40.81600000      52.96000000 
H      37.67300000      39.29900000      53.43500000 
H      38.95600000      39.63500000      52.41700000 
N      38.75600000      33.37800000      49.57800000 
C      38.30000000      32.11400000      49.03300000 
C      36.82900000      31.89900000      49.38000000 
O      36.29700000      32.42200000      50.39400000 
C      39.14500000      30.91500000      49.55100000 
C      40.46300000      30.83100000      48.77900000 
C      41.43300000      29.74600000      49.27100000 
C      41.08600000      28.35400000      48.78300000 
N      42.13600000      27.37500000      49.22400000 
H      38.66700000      33.50100000      50.55400000 
H      38.38100000      32.16900000      47.96800000 
H      39.32700000      31.05800000      50.60800000 
H      38.57700000      30.00300000      49.44200000 
H      40.24800000      30.66000000      47.73100000 
H      40.97300000      31.79000000      48.84200000 
H      42.43200000      29.99500000      48.94600000 
H      41.45300000      29.74800000      50.38300000 
H      40.14800000      27.98000000      49.17100000 
H      41.06300000      28.30900000      47.70500000 
H      41.97700000      26.45200000      48.85100000 
H      43.06500000      27.65000000      48.90900000 
H      42.18100000      27.28400000      50.21900000 
N      36.15900000      31.13300000      48.54700000 
C      34.78500000      30.67300000      48.73200000 
C      34.73400000      29.20100000      48.32800000 
O      35.38600000      28.78800000      47.36900000 
C      33.70600000      31.47300000      47.97900000 
C      34.15000000      32.19400000      46.68900000 
C      32.95800000      32.29700000      45.71100000 
N      32.95000000      33.55800000      44.97200000 
C      32.74800000      33.73400000      43.67900000 
N      32.42400000      32.72400000      42.88100000 
N      32.83600000      34.94000000      43.12300000 
H      36.61800000      30.75600000      47.73400000 
H      34.58600000      30.74000000      49.79500000 
H      32.89600000      30.79200000      47.74800000 
H      33.29000000      32.20400000      48.64200000 
H      34.53100000      33.17500000      46.93300000 
H      34.96000000      31.66500000      46.19100000 
H      33.03800000      31.50900000      45.00200000 
H      32.02800000      32.21000000      46.23000000 
H      33.04900000      34.41800000      45.52300000 
H      32.19900000      31.83300000      43.21400000 
H      32.71000000      32.76700000      41.88900000 
H      33.16100000      35.72400000      43.66000000 
H      32.57600000      35.10300000      42.19300000 
N      33.87800000      28.45200000      49.05200000 
C      33.59100000      27.06100000      48.69400000 
C      32.15500000      26.75800000      49.04500000 
O      31.32300000      26.50000000      48.12700000 
C      34.57200000      26.09200000      49.34900000 
O      34.16500000      24.76900000      48.97900000 
H      33.45800000      28.83000000      49.83300000 
H      33.66800000      26.94600000      47.61700000 
H      35.56700000      26.30500000      48.98600000 
H      34.57400000      26.20200000      50.43300000 
H      34.57700000      24.09700000      49.45400000 
N      31.78700000      26.81800000      50.34700000 
C      30.42300000      26.58400000      50.78300000 
C      29.90400000      27.65600000      51.72700000 
O      28.66500000      27.63100000      51.98400000 
C      30.10700000      25.16700000      51.38200000 
C      31.31100000      24.23300000      51.67700000 
C      31.25200000      23.71900000      53.15100000 
C      31.30700000      23.02800000      50.70900000 
H      32.49800000      26.85400000      51.02400000 
H      29.80500000      26.70500000      49.89900000 
H      29.53500000      25.32300000      52.29900000 
H      29.43100000      24.68100000      50.70500000 
H      32.23100000      24.76400000      51.56200000 
H      32.08600000      23.06600000      53.34000000 
H      31.30700000      24.55000000      53.83400000 
H      30.33700000      23.17700000      53.33500000 
H      32.15900000      22.40000000      50.88900000 
H      30.41300000      22.45400000      50.80300000 
H      31.37500000      23.39500000      49.67400000 
N      30.66500000      28.56600000      52.30700000 
C      30.20800000      29.42300000      53.36800000 
C      29.67800000      30.79800000      52.89000000 
O      28.65300000      31.24800000      53.37600000 
C      31.25300000      29.62600000      54.44900000 
O      31.42400000      28.36600000      55.06300000 
H      31.66600000      28.58200000      52.08200000 
H      29.34200000      28.95100000      53.81000000 
H      32.17500000      29.98600000      54.01700000 
H      30.89500000      30.36300000      55.15700000 
H      32.12900000      28.37300000      55.74200000 
N      30.45500000      31.45700000      51.99900000 
C      30.09500000      32.80000000      51.52500000 
C      29.98000000      32.71100000      50.00700000 
O      30.96100000      32.82000000      49.25300000 
C      31.08400000      33.86300000      52.04700000 
O      30.61400000      35.09500000      51.42800000 
C      32.56200000      33.63900000      51.78500000 
H      31.24500000      31.04300000      51.64200000 
H      29.14500000      33.05200000      51.93100000 
H      30.92600000      33.91600000      53.11100000 
H      31.11700000      35.84500000      51.70800000 
H      33.12600000      34.46700000      52.21800000 
H      32.91400000      32.73600000      52.25100000 
H      32.78500000      33.60100000      50.73000000 
N      28.74800000      32.40900000      49.54200000 
C      28.50300000      32.05300000      48.18200000 
C      27.82400000      33.19700000      47.42800000 
O      27.58400000      34.27100000      47.95800000 
C      27.63000000      30.77100000      48.11900000 
C      28.20300000      29.69800000      49.01000000 
O      29.39700000      29.39600000      48.98800000 
N      27.32400000      29.09700000      49.83400000 
H      27.97100000      32.45300000      50.18000000 
H      29.45500000      31.85400000      47.71000000 
H      26.61800000      30.98400000      48.35400000 
H      27.65600000      30.36700000      47.09700000 
H      27.63200000      28.43000000      50.48900000 
H      26.36200000      29.36400000      49.85500000 
N      27.48900000      32.93200000      46.12600000 
C      26.84400000      33.91000000      45.30300000 
C      26.19000000      33.18400000      44.13600000 
O      26.74900000      32.20700000      43.61800000 
C      27.86600000      34.97300000      44.78500000 
O      27.21400000      35.84400000      43.83900000 
C      29.09800000      34.39600000      44.12300000 
H      27.76300000      32.08000000      45.70500000 
H      26.10100000      34.42700000      45.86900000 
H      28.16400000      35.55200000      45.66000000 
H      26.66300000      36.49700000      44.25300000 
H      29.79100000      35.17600000      43.90200000 
H      29.59200000      33.68000000      44.77900000 
H      28.83400000      33.88300000      43.19900000 
N      27.04000000      36.46400000      40.69800000 
C      28.42100000      36.63200000      40.24800000 
C      28.89700000      35.31500000      39.62600000 
O      29.67000000      35.36100000      38.65300000 
C      29.36300000      37.15300000      41.33400000 
C      28.84000000      38.49500000      41.90000000 
C      30.79700000      37.29500000      40.82200000 
C      29.53800000      38.94000000      43.20800000 
H      26.84900000      36.38300000      41.67500000 
H      28.41600000      37.34400000      39.43000000 
H      29.35800000      36.42900000      42.16900000 
H      28.99000000      39.26600000      41.13000000 
H      27.79200000      38.44700000      42.08400000 
H      31.44600000      37.68100000      41.58200000 
H      31.20700000      36.35300000      40.48100000 
H      30.82100000      37.98900000      39.97100000 
H      29.15300000      39.88700000      43.53100000 
H      29.36100000      38.20400000      43.98200000 
H      30.61900000      39.03800000      43.07500000 
N      28.46500000      34.15600000      40.14200000 
C      28.87500000      32.89700000      39.54200000 
C      28.31900000      32.73600000      38.14000000 
O      29.00400000      32.14800000      37.27800000 
C      28.46500000      31.68700000      40.39800000 
O      27.11000000      31.29900000      40.24600000 
H      27.81400000      34.17300000      40.88500000 
H      29.94600000      32.89300000      39.44400000 
H      29.05200000      30.84100000      40.05500000 
H      28.73000000      31.88300000      41.43600000 
H      26.48100000      32.00000000      40.49300000 
N      44.75600000      29.33700000      38.04400000 
C      44.63400000      28.80500000      39.41600000 
C      43.54500000      29.54600000      40.22400000 
O      43.07900000      29.02000000      41.19700000 
C      45.98400000      28.82800000      40.14400000 
C      46.93500000      27.67000000      39.82400000 
C      46.33700000      26.30700000      40.23300000 
C      47.44000000      27.64400000      38.38100000 
H      45.57500000      29.82600000      37.82600000 
H      44.25600000      27.79300000      39.36500000 
H      46.47500000      29.78600000      39.94100000 
H      45.77300000      28.81100000      41.21200000 
H      47.80100000      27.83200000      40.47000000 
H      47.09200000      25.52600000      40.13000000 
H      45.98400000      26.31300000      41.24600000 
H      45.50300000      26.03400000      39.57900000 
H      48.26700000      26.91600000      38.29500000 
H      46.67500000      27.34800000      37.68900000 
H      47.83300000      28.61300000      38.07700000 
N      43.18600000      30.77600000      39.74700000 
C      42.10000000      31.54200000      40.34500000 
C      40.79000000      31.29100000      39.58800000 
O      39.74200000      31.95800000      39.94500000 
C      42.41800000      33.03800000      40.34600000 
C      43.52400000      33.38700000      41.34500000 
C      43.78700000      34.88100000      41.42600000 
O      43.31200000      35.64900000      40.56500000 
O      44.52800000      35.27100000      42.41000000 
H      43.69900000      31.17700000      39.03100000 
H      41.91800000      31.18400000      41.33500000 
H      42.69500000      33.35500000      39.35400000 
H      41.50900000      33.57200000      40.61600000 
H      43.26200000      33.04200000      42.33600000 
H      44.44600000      32.91300000      41.07900000 
N      40.74300000      30.39800000      38.63700000 
C      39.52500000      29.98600000      37.93900000 
C      38.88600000      31.13300000      37.12000000 
O      37.68700000      31.15600000      36.90400000 
C      38.47800000      29.38400000      38.89300000 
C      38.82000000      27.98900000      39.37300000 
O      38.28600000      26.99900000      38.81200000 
N      39.64800000      27.83700000      40.39200000 
H      41.56100000      29.90200000      38.35900000 
H      39.81700000      29.25100000      37.20600000 
H      38.37900000      30.04100000      39.74100000 
H      37.53300000      29.32300000      38.38800000 
H      39.86800000      26.94100000      40.72000000 
H      40.06300000      28.61300000      40.87200000 
N      33.39600000      27.29500000      40.88100000 
C      33.38400000      28.39500000      41.83100000 
C      34.77100000      29.04200000      41.82700000 
O      35.76000000      28.36400000      42.18900000 
C      33.01300000      27.82300000      43.22100000 
O      31.64200000      27.40400000      43.07500000 
C      33.12600000      28.80300000      44.35200000 
H      33.95600000      26.53300000      41.11000000 
H      32.63800000      29.10300000      41.54400000 
H      33.63300000      26.95800000      43.39400000 
H      31.40200000      26.70100000      43.67900000 
H      32.82500000      28.31200000      45.28800000 
H      34.13100000      29.17300000      44.48300000 
H      32.44500000      29.63100000      44.18500000 
N      34.83000000      30.29900000      41.39300000 
C      36.07700000      31.03100000      41.26700000 
C      36.42200000      31.79300000      42.56000000 
O      35.68400000      31.72700000      43.56800000 
C      36.00300000      31.98000000      40.04800000 
C      34.92300000      33.05600000      40.11800000 
O      35.21100000      34.20100000      39.75000000 
O      33.76000000      32.65700000      40.48500000 
H      34.02000000      30.79800000      41.14800000 
H      36.86600000      30.33600000      41.12200000 
H      36.95700000      32.45900000      39.90400000 
H      35.82500000      31.36800000      39.18100000 
N      37.53400000      32.51200000      42.53700000 
C      37.95000000      33.35200000      43.64900000 
C      38.10700000      34.79200000      43.13400000 
O      38.47200000      35.03400000      42.02300000 
C      39.28000000      32.92800000      44.31800000 
C      39.51500000      31.44400000      44.39600000 
C      38.62100000      30.53800000      44.98200000 
C      40.68700000      30.89700000      43.85600000 
C      38.85000000      29.19800000      45.02100000 
C      40.93900000      29.55200000      43.87600000 
C      40.04200000      28.67600000      44.45000000 
O      40.21700000      27.32200000      44.49200000 
H      38.14300000      32.50200000      41.73700000 
H      37.15600000      33.31300000      44.38200000 
H      40.10900000      33.36800000      43.76000000 
H      39.30900000      33.36200000      45.30200000 
H      37.70000000      30.92300000      45.41600000 
H      41.40300000      31.56900000      43.40900000 
H      38.16800000      28.51300000      45.46600000 
H      41.84700000      29.15900000      43.42900000 
H      40.99000000      27.01900000      44.01400000 
N      37.81200000      35.76600000      44.04600000 
C      37.79500000      37.18100000      43.72500000 
C      38.94000000      37.91200000      44.39800000 
O      39.27200000      37.68100000      45.59300000 
C      36.39200000      37.74000000      44.14200000 
C      36.34600000      39.27400000      44.31100000 
C      35.36100000      37.31200000      43.09400000 
H      37.51600000      35.49400000      44.95700000 
H      37.90100000      37.27800000      42.65200000 
H      36.13500000      37.29700000      45.10000000 
H      35.33300000      39.56300000      44.57200000 
H      36.99100000      39.61700000      45.09400000 
H      36.61500000      39.78900000      43.38900000 
H      34.37100000      37.57100000      43.41500000 
H      35.54900000      37.81000000      42.14300000 
H      35.40000000      36.25000000      42.92000000 
N      39.55400000      38.83600000      43.64800000 
C      40.58500000      39.74400000      44.11400000 
C      39.95200000      41.05400000      44.56800000 
O      38.92500000      41.51700000      44.00600000 
C      41.57100000      40.05500000      42.94700000 
C      42.44700000      38.87000000      42.57400000 
C      43.39400000      39.24700000      41.43300000 
O      42.84600000      39.56100000      40.34000000 
O      44.64300000      39.24700000      41.66300000 
H      39.20600000      38.99100000      42.72300000 
H      41.11100000      39.29400000      44.92400000 
H      40.99600000      40.37400000      42.08400000 
H      42.18700000      40.90000000      43.25100000 
H      43.04600000      38.56400000      43.43700000 
H      41.84900000      38.03500000      42.26600000 
N      40.53100000      41.71200000      45.58200000 
C      40.01500000      42.98800000      46.07700000 
C      41.19900000      43.80100000      46.54000000 
O      41.89900000      43.42000000      47.49000000 
C      38.96800000      42.73700000      47.18700000 
O      37.75200000      42.25000000      46.56400000 
C      38.59100000      43.96700000      47.99800000 
H      41.29300000      41.28100000      46.09200000 
H      39.52200000      43.48400000      45.24800000 
H      39.34800000      41.95700000      47.83300000 
H      37.84500000      41.97800000      45.67000000 
H      37.77800000      43.70500000      48.65700000 
H      39.44600000      44.28100000      48.63100000 
H      38.29700000      44.77900000      47.36800000 
N      38.85500000      44.07100000      55.33800000 
C      39.16000000      45.18900000      54.45000000 
C      37.88500000      45.42000000      53.64600000 
O      37.48800000      44.53300000      52.85100000 
C      40.35900000      44.86500000      53.56300000 
C      40.80700000      45.99000000      52.69900000 
O      40.14600000      47.04800000      52.58600000 
N      41.97000000      45.81800000      52.03200000 
H      38.29900000      43.35400000      54.96900000 
H      39.36600000      46.04700000      55.04900000 
H      41.18200000      44.56800000      54.21300000 
H      40.13500000      44.00700000      52.94400000 
H      42.29900000      46.54100000      51.42400000 
H      42.49900000      45.00400000      52.11900000 
H      49.74225426      28.47802289      42.86510261 
H      49.08282914      31.50646952      45.37293132 
H      44.48513954      42.69675246      49.57585826 
H      25.30674616      33.49519762      43.78525979 
H      26.54981911      37.17105397      40.43380806 
H      27.41442120      33.09879606      37.91613349 
H      44.71691743      28.65842499      37.45407754 
H      39.45869623      31.86930682      36.75962341 
H      32.56214365      26.96942960      40.78779327 
H      41.42747922      44.65866706      46.07934344 
H      39.62087490      43.67615789      55.59787564 
H      37.37299482      46.27211080      53.75443378 
