 294 
 
N                59.1458150207       23.6802828578       24.1740272033
C                58.8790188720       24.0273795285       25.5542930306
C                59.2784968852       22.8596166354       26.4708192749
O                58.7835212615       21.7465723301       26.3725468961
C                57.4016685390       24.3533387401       25.7555932522
C                56.9569272788       25.5438604737       24.9236762879
S                57.7666976630       27.0919769799       25.4377145357
C                57.0864263645       28.1464519475       24.1245426267
H                58.3607353406       23.4314516505       23.5837411556
H                59.5040067218       24.8984783720       25.7954879416
H                56.8235586030       23.4723014362       25.4615495761
H                57.2431719999       24.5527926253       26.8178196554
H                57.1969087333       25.3857005685       23.8719404690
H                55.8812507663       25.6898671326       25.0296548605
H                57.5588494832       29.1172529716       24.2046465642
H                57.3107740592       27.6962758888       23.1604945199
H                56.0134557081       28.2403014144       24.2638683687
N                59.5819879842       22.2426178461       30.7507692177
C                58.9119230391       22.8317448318       31.8874592780
C                58.7492396026       21.8053407024       32.9872023044
O                58.4738140682       20.6311803976       32.7715274074
C                57.5107790112       23.3637449083       31.4893469946
C                56.6586267702       22.3071306329       30.8496532801
C                56.8241506890       21.9687318730       29.5086071444
C                55.6835997948       21.6383966452       31.5811324452
C                56.0220999911       21.0222687408       28.8991570218
C                54.8611978197       20.7069924087       30.9796167742
C                55.0057759242       20.4043075894       29.6251237462
O                54.1051084338       19.5688661403       29.0710293275
H                59.7657095688       21.2447338031       30.7474663250
H                59.4960564171       23.6896624529       32.2429902699
H                57.0344664559       23.7650401153       32.3863052266
H                57.6832804374       24.1913771583       30.7998513634
H                57.5797180301       22.4661986079       28.9182562147
H                55.5597118996       21.8779471084       32.6250402676
H                56.1749541136       20.7632233470       27.8603141110
H                54.0929132711       20.1930292559       31.5313484874
H                54.2975169860       19.4590647916       28.1072923873
N                55.0537005447       24.6817043842       37.8337885429
C                54.1966726994       25.5478310245       37.0380139109
C                52.7939309529       25.5539049428       37.6593548345
O                52.1860450659       26.5818364530       37.9224564639
C                54.2313919331       25.0237242011       35.5966340294
C                53.3470579903       25.7478522431       34.5686567540
C                51.8716326349       25.3717721502       34.6979456379
C                53.5194838351       27.2638576268       34.6378506826
H                55.7227450255       24.1135395868       37.3269769969
H                54.5654412081       26.5827304693       37.0809904663
H                55.2732678101       25.1116296392       35.2724274880
H                53.9601199550       23.9655479297       35.6167712784
H                53.6985273863       25.4245924222       33.5826434597
H                51.3215084263       25.7786976760       33.8548675760
H                51.7507972523       24.2925690563       34.7323073459
H                51.4542438763       25.8079395571       35.6003920205
H                53.0041014439       27.7544739312       33.8149846243
H                53.1071783366       27.6587158530       35.5648023759
H                54.5691842370       27.5561089341       34.5842668489
N                45.6188966745       30.7019457303       28.9760191397
C                46.9482269911       30.9215312380       29.5031795802
C                46.9467012216       30.4787567714       30.9661182269
O                45.9942163141       30.7049863890       31.7113857612
C                47.3720685087       32.3980463868       29.3406735273
C                46.4282118048       33.3663593930       30.0607920608
C                48.8137759088       32.5636645136       29.8179860660
H                44.8742500730       31.1983721501       29.4418160791
H                47.6317240429       30.2842154598       28.9305777387
H                47.3337034265       32.6059696399       28.2663068065
H                46.8920676675       34.3480994491       30.1166037722
H                45.4822976288       33.4680297235       29.5305408216
H                46.2251208557       33.0269654464       31.0752903005
H                49.1851396791       33.5411162953       29.5198277635
H                48.8714476505       32.4807168718       30.9027021807
H                49.4437593732       31.7940993000       29.3726852185
N                48.0284783232       29.7954301535       31.3539093955
C                48.2285006894       29.3833966897       32.7291674231
C                49.3746423300       30.2351266060       33.2980166299
O                50.4947415144       30.2560356141       32.8247925547
C                48.4403965062       27.8608681834       32.8535441948
C                49.6347811134       27.3732739485       32.0390876952
C                48.5707178711       27.4729785956       34.3251950830
H                48.8006072339       29.6565888354       30.7164921114
H                47.3076170598       29.6476122921       33.2594240555
H                47.5290020965       27.3947640946       32.4576150553
H                49.7406917119       26.3000532252       32.1722198856
H                49.4765187764       27.5795025246       30.9825661284
H                50.5472320340       27.8719100585       32.3640400779
H                48.6126035444       26.3923006103       34.4105004235
H                49.4688512775       27.8970284131       34.7707595508
H                47.7140654908       27.8220348618       34.8962608165
N                48.9842543194       31.0080461816       34.3319995381
C                49.8317425624       31.9952439281       34.9956235636
C                49.3329000007       32.0026389830       36.4494704193
O                49.5847847632       31.0539807279       37.1825281616
C                49.7661774993       33.3159245179       34.2191636031
C                50.4854482320       34.4846175882       34.9496655140
O                51.6435036322       34.7548045122       34.5953816080
O                49.8265301872       35.0873856531       35.8284055531
H                48.0273930433       30.9631508246       34.6499392916
H                50.8584043232       31.6092199375       34.9901953052
H                50.2364549897       33.1572783861       33.2437350451
H                48.7201422112       33.5962449853       34.0777666753
N                52.5852031644       37.2304980702       24.9398323018
C                52.8110572908       36.7692022443       26.2850383772
C                53.0380744795       35.2690604186       26.4554593081
O                53.2298369364       34.8013860092       27.5687419555
H                53.3735545120       37.2283622509       24.3011124547
H                53.6803897676       37.2821481010       26.7058892880
H                51.9204679532       37.0311112247       26.8657165406
N                52.9552373005       34.5429916606       25.3361862372
C                53.1683047672       33.1070163632       25.3061224855
C                54.6931055265       32.8885404336       25.3600209978
O                55.4134549342       32.9470929680       24.3773436871
C                52.5548640264       32.4769748764       24.0492037385
C                51.0567184892       32.7764878239       23.8953682640
C                52.8348825784       30.9740620017       24.0392587510
C                50.1777524468       32.2377575147       25.0182694477
H                52.9565614780       35.0234600839       24.4474385265
H                52.7074585772       32.6784546662       26.2036068377
H                53.0611382178       32.9194237387       23.1821303157
H                50.9162057377       33.8562152969       23.8110591294
H                50.7317936071       32.3377769971       22.9486665359
H                52.3117373913       30.5054003085       23.2098187285
H                53.8986586857       30.7908076842       23.9109724211
H                52.5166600970       30.5073867703       24.9679861818
H                49.1321963343       32.4121264823       24.7774997865
H                50.3212480868       31.1699464390       25.1507005103
H                50.3992036740       32.7295231998       25.9601224186
N                55.1513621764       32.7182100858       26.6116603892
C                56.5146228413       32.3878965956       26.9400367919
C                56.5012984154       31.0047724202       27.5934368976
O                55.4404977464       30.5050136962       27.9556164179
C                57.1131121189       33.4425660943       27.8952006759
O                57.2972878386       34.6310524102       27.1726768799
H                54.4843473021       32.4927100104       27.3371604708
H                57.0919107575       32.3867355894       26.0115177158
H                56.4153568225       33.5987242382       28.7326089619
H                58.0719235577       33.0731413105       28.2856089206
H                57.7985365439       35.2573781082       27.7116715930
N                57.6822194634       30.4343765919       27.8400906347
C                57.7752158867       29.1812929929       28.5774229493
C                56.8990707966       29.2076355866       29.8392542232
O                56.3096654398       28.2147779720       30.2244209350
C                59.2204670913       28.8942097384       28.9651965447
H                58.5368915430       30.8303514645       27.4774854209
H                57.3997832270       28.3629311770       27.9524726859
H                59.2649686114       27.9524194651       29.5064578229
H                59.8413333107       28.8282495244       28.0747343247
H                59.6042054804       29.6714597482       29.6214550473
N                56.8523688774       30.3900936827       30.4769770813
C                56.1816029737       30.5657869750       31.7430887329
C                54.6522712269       30.7059252024       31.6313922919
O                53.9816098835       30.8095729231       32.6476532593
C                56.7176310179       31.7941006653       32.4822208368
C                58.1797776310       31.6777440180       32.9089798779
C                58.3634812491       30.5240781992       33.9454381686
O                58.2055824437       30.8213618648       35.1466527822
O                58.6508095466       29.4016839289       33.4808595780
H                57.4010895985       31.1667460210       30.1429830113
H                56.3643573002       29.6781682939       32.3617698657
H                56.5874158812       32.6784064417       31.8497089320
H                56.1068005809       31.9282456770       33.3783419731
H                58.8333586235       31.4883786426       32.0545098375
H                58.4795555147       32.6047575364       33.3990331690
N                54.1521162575       30.7209117909       30.3922659120
C                52.7534534878       30.9498158654       30.0819763055
C                52.3277157830       30.0687553253       28.8924833587
O                51.9613481060       30.5495683536       27.8206046972
C                52.5432748620       32.4351611144       29.7812956751
C                52.7261193657       33.2802364399       31.0373026686
C                52.3727532363       34.7425869221       30.7971479650
N                52.4560259320       35.4614617560       32.0514409199
C                52.2838750841       36.7659552020       32.2115731646
N                52.1047310586       37.5842720310       31.1725881687
N                52.3767388741       37.2567514262       33.4480145555
H                54.7601137126       30.5948672880       29.5890022319
H                52.1606028025       30.6921648129       30.9736651064
H                53.2281853357       32.7766837920       29.0028690655
H                51.5354227634       32.5586769560       29.3955564040
H                52.0973078278       32.8750618242       31.8355485660
H                53.7613579645       33.2198677195       31.3785771671
H                53.0705459592       35.1638504440       30.0693563759
H                51.3619224505       34.8078215968       30.3806053481
H                52.3916679642       34.8963998025       32.9023589172
H                52.0823064644       37.2065885779       30.2397230729
H                52.0177646986       38.5783068139       31.3169234033
H                52.3131545455       36.5917956546       34.2138321183
H                52.1565444841       38.2179141013       33.6425410913
N                52.3661575821       28.7536214972       29.1131496093
C                51.9487119387       27.8051774486       28.0936308624
C                50.4219421670       27.8605135955       27.8753240073
O                49.6840779859       28.5499089361       28.5606215351
C                52.4764011667       26.4607185193       28.6039052800
C                52.4969714704       26.6244769932       30.1237459870
C                52.8924430774       28.0861720797       30.2941293171
H                52.3943708633       28.1055274787       27.1386458676
H                51.8245372644       25.6515486779       28.3025444171
H                53.4825388020       26.3108653647       28.2155475348
H                51.5031147936       26.4566114883       30.5396271647
H                53.2297124830       25.9836304297       30.6093415617
H                52.4998148194       28.5280950112       31.2072442834
H                53.9809741305       28.1863821999       30.3421598035
N                49.9986696066       27.1241528138       26.8261870549
C                48.6385004219       27.1607426567       26.3428806945
C                47.8875507401       25.8767392779       26.7185988349
O                48.4329295666       24.7890251978       26.8132132606
C                48.5695283102       27.4569616608       24.8268881197
C                49.5237770423       26.6348548553       23.9429675166
C                48.9360852373       26.4345133412       22.5454642756
C                50.8795424163       27.3300999073       23.7872296902
H                50.6092290338       26.4429588826       26.4021105196
H                48.1609149637       27.9903575057       26.8748973083
H                47.5392696091       27.2988456771       24.5053616481
H                48.7989273080       28.5133733077       24.6812581570
H                49.6571859067       25.6454492472       24.3872211131
H                49.6549194166       25.9151038533       21.9162570786
H                48.0244627428       25.8429065345       22.5720244590
H                48.7097915806       27.3931766308       22.0858630605
H                51.5544639974       26.6910110495       23.2210880809
H                50.7478023664       28.2653781956       23.2436077401
H                51.3326062211       27.5549477731       24.7485293679
N                46.5711304339       26.0710348502       26.8992744870
C                45.6594075386       25.1120499203       27.4936027046
C                44.3417157587       25.1694764556       26.7147545548
O                43.9965216616       26.2136893523       26.1699255350
C                45.4230746265       25.4656391601       28.9905249157
C                44.6003196061       24.3956628379       29.6961178456
C                46.7440628339       25.6592917213       29.7337871438
H                46.2178369119       27.0218858173       26.8639318353
H                46.0981420459       24.1161400969       27.4128020269
H                44.8803992835       26.4148755315       29.0254160567
H                44.3068710858       24.7298398335       30.6862086213
H                43.6925989964       24.1628215748       29.1511848190
H                45.1768219230       23.4824451640       29.8115653279
H                46.5374549194       25.7646646076       30.7952626042
H                47.4024845391       24.8039712616       29.6029694766
H                47.2688984563       26.5492475596       29.3963057517
N                46.1546877039       20.4852528679       28.8345046029
C                47.1409336032       21.4258604525       28.3443448380
C                47.4999837064       21.0625883569       26.8950480802
O                47.5693843489       19.8979006149       26.5161317522
C                48.3882291571       21.4482140300       29.2305503650
C                48.2076587781       22.1132815417       30.5765868435
C                47.0460151953       21.9784229631       31.3269235190
C                49.2539177855       22.8553999895       31.1152087855
C                46.9379568421       22.5595458111       32.5788302191
C                49.1562905133       23.4170713983       32.3761902738
C                47.9963458078       23.2697875539       33.1157353094
H                46.4900038121       19.6042592723       29.2207389936
H                46.6727836948       22.4145464330       28.3424622226
H                48.6956456117       20.4100474225       29.3780062218
H                49.1691423113       21.9711888542       28.6766728867
H                46.2057371393       21.4315759633       30.9341913004
H                50.1487064001       23.0160777361       30.5382502533
H                46.0183020275       22.4553432486       33.1318559907
H                49.9902233449       23.9678098872       32.7803016673
H                47.9116870949       23.7121888932       34.0947560439
N                50.2851846651       21.1765142538       24.7334101644
C                51.6027230003       21.0105208188       24.1288384229
C                51.8021291874       19.5220199119       23.8293206430
O                51.9233976614       19.0845892831       22.7061865058
C                52.7692437949       21.5217351704       24.9869418843
C                52.8406860900       23.0486737948       25.1114131948
C                53.5672506511       23.4637463112       26.3878905620
N                52.8087049886       22.9987076130       27.5398150483
C                53.2246919546       22.9863488312       28.7995252474
N                54.2922129353       23.6859157812       29.1723869903
N                52.4817599678       22.3784669233       29.7278517131
H                49.8582198832       20.3549107646       25.1376426563
H                51.5943030235       21.5597697961       23.1809194520
H                52.7086253770       21.0700603912       25.9773614615
H                53.6937576573       21.1457590793       24.5429677838
H                53.3860331234       23.4530042085       24.2597218527
H                51.8369486264       23.4727041873       25.0936041878
H                54.5656649212       23.0124055470       26.3919839138
H                53.6558617690       24.5536451137       26.4128627263
H                51.9356231810       22.5397039429       27.3197363431
H                54.8925535627       24.0992998691       28.4769251495
H                54.6924358689       23.5328092737       30.0876694910
H                51.7888319432       21.6976146364       29.4568589562
H                52.8420636561       22.3060593279       30.6682111263
H                59.5369347657       24.3767310007       23.7593160636
H                59.9686157360       22.9953884072       27.1816652482
H                59.0932945693       22.3827932266       30.0081188229
H                58.8671892059       22.0738942572       33.9432184545
H                55.5394863805       25.1810821274       38.4035551541
H                52.3355669598       24.6898788914       37.8675889148
H                45.5913147425       30.9590305387       28.1139596068
H                48.8052788206       32.7795130069       36.7931019681
H                51.9616167763       36.7146645052       24.5460611122
H                43.7631263693       24.3564038554       26.6503552905
H                45.6788323231       20.8665508117       29.4964513792
H                47.6852110928       21.7856460150       26.2295569545
H                50.3350981048       21.7762927236       25.4025696639
H                51.8371773372       18.8614147232       24.5792355794
