 431 
 
N                31.8871914004       34.2145442855       31.1885922756
C                33.2571284289       34.4663887118       30.7850630659
C                33.8342655564       33.2102987628       30.1348579857
O                34.3399293443       33.2291880834       29.0180630020
C                34.1128606385       34.8816359008       31.9715828617
C                35.6183893456       34.8307366508       31.5458565071
O                36.2158674278       33.7564449578       31.7505459963
O                36.0886559286       35.8629106780       31.0333756454
H                31.6460507547       34.4124099843       32.1520727730
H                33.2832920413       35.2520173644       30.0158617529
H                33.8605239269       35.8939660149       32.2921857765
H                33.9633291597       34.1818258165       32.7919305284
N                33.6753383271       32.0948458926       30.8532110341
C                34.2093535445       30.8336520772       30.4083429085
C                33.0991409987       29.8921641840       29.9183829362
O                32.9216095333       28.7938845059       30.4365581622
C                35.0332275513       30.1738653595       31.5265572153
O                34.2554517907       29.8478528860       32.6448862294
H                33.4051899369       32.1467199859       31.8279377865
H                34.8675612891       31.0541964131       29.5555357914
H                35.5213102319       29.2722903077       31.1249589598
H                35.7976761708       30.8827891195       31.8586090225
H                33.5557384804       29.2569967383       32.3191655047
N                33.4389108633       28.8786021704       26.7533108174
C                34.2037875008       28.1498605325       25.7479245439
C                34.1722102278       26.6743285551       26.1850539626
O                35.0892462857       26.1629825794       26.8079931221
C                35.6693821467       28.5621471857       25.6930285818
C                36.0119917820       29.8818124278       24.9999949992
C                35.7100433656       29.8280268294       23.5042470335
C                35.3064057536       31.0697926622       25.6471029847
H                33.9714245018       29.3032656835       27.4973284319
H                33.7150937894       28.2709320896       24.7782446750
H                36.0581424153       28.5732343770       26.7159968581
H                36.1695054995       27.7537247956       25.1539400617
H                37.0935272434       30.0178245850       25.1223716290
H                36.2159791634       30.6501987669       23.0017057890
H                36.0687880679       28.8987313446       23.0678179342
H                34.6421379899       29.9207481144       23.3263920082
H                35.6123088893       31.9939513102       25.1623995969
H                34.2289455003       30.9815625450       25.5473455536
H                35.5568896650       31.1504514132       26.7043059421
N                37.6165969041       23.4525645445       23.2231660446
C                38.4964236203       24.1560657509       22.3097052270
C                38.5690829094       25.6601968761       22.5829703963
O                38.5282504067       26.4881794116       21.6926246837
H                37.7724952178       22.4688961105       23.3845208814
H                39.5102924926       23.7576304412       22.4111272186
H                38.1665094671       24.0185274854       21.2729764231
N                38.7974759767       25.9770869506       23.8720208985
C                39.2508694061       27.2940967548       24.2601947616
C                40.7621797692       27.3698415507       23.9978147250
O                41.3746739995       26.3823608751       23.5970119975
C                38.9550000703       27.5177992373       25.7385657742
H                39.0221076201       25.2315086903       24.5148194603
H                38.7313759286       28.0203527261       23.6291614708
H                38.9218748205       28.5776294030       25.9703280829
H                37.9888065465       27.0885614336       25.9900198859
H                39.7220818893       27.0446105324       26.3477212134
N                41.3676040668       28.5315770768       24.2311666735
C                42.8138827816       28.6200113159       24.3977302159
C                43.0025379735       29.5043302788       25.6339391097
O                42.5754271682       30.6531342102       25.6484466572
C                43.5462782194       29.2290339281       23.1967842852
C                45.0175825020       28.7915765982       23.1461821962
C                45.1467721233       27.3160183248       22.7682414810
C                45.7638416596       29.6658451076       22.1393262123
H                40.8467580780       29.3441105970       24.5279961920
H                43.1774452843       27.6076271741       24.5873353417
H                43.0562779533       28.9280916041       22.2709366268
H                43.4940910695       30.3157450129       23.2848739636
H                45.4612204137       28.9490884539       24.1378140846
H                46.1972083430       27.0564386556       22.6756551616
H                44.7120838771       26.6732064022       23.5297967784
H                44.6548642261       27.1297673924       21.8167576013
H                46.8283377767       29.4437224189       22.1481846253
H                45.3834290285       29.5001363602       21.1345128462
H                45.6245455164       30.7111485121       22.3996733604
N                43.5702766198       28.8976141989       26.6732566594
C                43.7913722283       29.5116981385       27.9611689059
C                45.2968554969       29.6755170455       28.1816689588
O                46.1211406837       28.9239430595       27.6766747141
C                43.2294032744       28.6197833206       29.0828185021
C                41.7443128302       28.8359095489       29.3863571329
C                40.8957403226       28.7745580352       28.1237034090
C                41.2806792523       27.7535202102       30.3589465951
H                43.9117773579       27.9449799628       26.5602278501
H                43.3011481956       30.4913039426       27.9795084732
H                43.3676669934       27.5766516358       28.7890405930
H                43.8028210928       28.7944030486       29.9948837801
H                41.6197136576       29.8183780141       29.8462883086
H                39.8451712843       28.7205134435       28.3949849989
H                41.0359499121       29.6595692138       27.5109957343
H                41.1685091096       27.8968786581       27.5432914860
H                40.2460430140       27.9181709930       30.6518204400
H                41.3551619876       26.7784924128       29.8808618889
H                41.9012189819       27.7517881128       31.2503798069
N                45.6188966745       30.7019457303       28.9760191397
C                46.9482269911       30.9215312380       29.5031795802
C                46.9467012216       30.4787567714       30.9661182269
O                45.9942163141       30.7049863890       31.7113857612
C                47.3720685087       32.3980463868       29.3406735273
C                46.4282118048       33.3663593930       30.0607920608
C                48.8137759088       32.5636645136       29.8179860660
H                44.8742500730       31.1983721501       29.4418160791
H                47.6317240429       30.2842154598       28.9305777387
H                47.3337034265       32.6059696399       28.2663068065
H                46.8920676675       34.3480994491       30.1166037722
H                45.4822976288       33.4680297235       29.5305408216
H                46.2251208557       33.0269654464       31.0752903005
H                49.1851396791       33.5411162953       29.5198277635
H                48.8714476505       32.4807168718       30.9027021807
H                49.4437593732       31.7940993000       29.3726852185
N                48.0284783232       29.7954301535       31.3539093955
C                48.2285006894       29.3833966897       32.7291674231
C                49.3746423300       30.2351266060       33.2980166299
O                50.4947415144       30.2560356141       32.8247925547
C                48.4403965062       27.8608681834       32.8535441948
C                49.6347811134       27.3732739485       32.0390876952
C                48.5707178711       27.4729785956       34.3251950830
H                48.8006072339       29.6565888354       30.7164921114
H                47.3076170598       29.6476122921       33.2594240555
H                47.5290020965       27.3947640946       32.4576150553
H                49.7406917119       26.3000532252       32.1722198856
H                49.4765187764       27.5795025246       30.9825661284
H                50.5472320340       27.8719100585       32.3640400779
H                48.6126035444       26.3923006103       34.4105004235
H                49.4688512775       27.8970284131       34.7707595508
H                47.7140654908       27.8220348618       34.8962608165
N                44.3161832706       31.6758745810       35.7624094899
C                43.7176896298       30.3615939532       35.5726300053
C                43.5310488069       29.7058754810       36.9396397778
O                42.4608997411       29.1973280124       37.2643308706
C                44.5634316673       29.4819046964       34.6471470169
C                43.7579377426       28.3512599540       33.9816614361
C                44.6242686128       27.6619858265       32.9288950310
C                43.2406123790       27.3150436640       34.9761656674
H                45.0479068214       31.9868052423       35.1396119818
H                42.7096228931       30.4904214610       35.1552438735
H                44.9694530817       30.1176198911       33.8556171453
H                45.3973807291       29.0601964189       35.2123944232
H                42.8948505040       28.8086139814       33.4871152458
H                44.0371148191       26.9137882159       32.4032971324
H                44.9959994409       28.3883299661       32.2101970873
H                45.4663174126       27.1721648704       33.4114665985
H                42.7215668354       26.5239464625       34.4420363441
H                44.0636051933       26.8859389707       35.5432180777
H                42.5365357064       27.7543119919       35.6734268664
N                40.8181400111       32.5832948202       33.8686510955
C                41.7998160277       32.8692954378       32.8263427541
C                41.2461777747       33.9019074581       31.8279779812
O                40.1478072303       34.4147042126       31.9398893362
C                41.9945689663       31.5211441553       32.1234551003
C                40.6134041057       30.8859782800       32.2527241544
C                40.1755605354       31.2950504729       33.6544520334
H                42.7157734199       33.2694632398       33.2729388905
H                42.2916069494       31.6291768893       31.0822577452
H                42.7486874195       30.9351121559       32.6423572363
H                39.9392863563       31.3335997259       31.5219938278
H                40.6141745238       29.8071899938       32.1257835452
H                39.0905660942       31.3691638310       33.7356548773
H                40.5366257113       30.5845087839       34.4071702035
N                42.0947727095       34.1562122289       30.8076885303
C                41.6482871683       34.6849528268       29.5375522316
C                41.5532107174       33.5174095624       28.5318810022
O                42.0282557021       32.4252268206       28.7930830218
C                42.6289201250       35.7458523819       28.9946967267
O                43.8048768451       35.0649338173       28.6117293067
C                42.8983384526       36.8342669418       30.0272282759
H                42.9606425724       33.6366028101       30.7573953664
H                40.6587006874       35.1211948253       29.7014801041
H                42.1665954030       36.2032899846       28.1042526147
H                44.5169751132       35.7146698504       28.5260580730
H                43.5908562361       37.5734277019       29.6324823521
H                41.9702549332       37.3301334697       30.2992317372
H                43.3193282287       36.3955793750       30.9266544793
N                40.9824328993       33.8401903038       27.3609678906
C                40.6534643040       32.8711505290       26.3366880827
C                41.1707830554       33.2967202368       24.9524112790
O                40.5781991868       33.0330111413       23.9191309854
C                39.1648598257       32.4862956032       26.3020471974
C                38.1131864091       33.6094837743       26.3793618416
C                37.9022789125       34.1646829176       27.7914422743
C                38.3624054615       34.7288270689       25.3711634612
H                40.5204230131       34.7341936491       27.2884337039
H                41.2305215154       31.9694315512       26.5781534819
H                39.0231928782       31.9614170518       25.3542379509
H                38.9653398772       31.7904975845       27.1203746729
H                37.1647011922       33.1331893540       26.1106849825
H                36.9330847693       34.6569743100       27.8667671821
H                37.9008423573       33.3735039665       28.5398057362
H                38.6515604132       34.8949058642       28.0888463438
H                37.5268546805       35.4252566766       25.3800886415
H                39.2676131074       35.2857007805       25.6036849958
H                38.4690313557       34.3120838848       24.3734901007
N                42.3276222331       33.9760772024       24.9702023863
C                42.9514418139       34.4561497309       23.7451722042
C                43.2369318368       33.2959531547       22.7745281152
O                43.9914616112       32.3864805774       23.0790153131
C                44.2843592770       35.1240240074       24.0912285491
C                44.9280166264       35.8429371020       22.8965954424
C                44.2286993382       37.1743687726       22.6253292925
C                46.4153989633       36.0713835700       23.1708544894
H                42.8729096660       33.9812759015       25.8194466164
H                42.2509230902       35.1578319799       23.2758670132
H                44.1221581679       35.8368149002       24.9019161951
H                44.9506090672       34.3345815032       24.4502028023
H                44.8344926400       35.2028075216       22.0119661876
H                44.6347964211       37.6428491561       21.7335938199
H                43.1626116177       37.0322861340       22.4688930530
H                44.3574009967       37.8403218699       23.4748422322
H                46.8801383090       36.5527157326       22.3141600761
H                46.5489264777       36.6814821720       24.0618149493
H                46.9205840162       35.1223511096       23.3332157586
N                42.6823546402       33.4090028713       21.5598107074
C                42.9442392254       32.5040456380       20.4630971421
C                42.8901575908       33.3073813232       19.1605131935
O                42.2833031767       34.3664207475       19.0931638548
C                41.8902535835       31.3916890931       20.3700012434
H                42.0459137125       34.1609494245       21.3356789931
H                43.9332915341       32.0589689467       20.6157459535
H                42.1280510756       30.7197578011       19.5480471040
H                41.8673432830       30.8394828178       21.3048652497
H                40.9043650180       31.8178185933       20.1886730299
N                41.5604383262       28.7696592047       14.1908709655
C                41.9622392645       27.3929504979       14.3180153327
C                41.2868444520       26.5974020528       13.1955319890
O                40.4673024018       27.1125264978       12.4475840952
C                41.4687690932       26.8418317988       15.6693077162
C                41.7677213372       27.8058569738       16.8163197247
C                41.0534569491       27.4215204498       18.1082220259
N                41.6959584299       26.3093679653       18.7653726790
C                42.0151610068       26.1997317807       20.0413240709
N                42.6222802300       25.0813202814       20.4557644081
N                41.8693915071       27.1904815057       20.9237337457
H                40.5748000608       28.9365425560       14.3827810070
H                43.0535766362       27.3423255126       14.2413240381
H                40.3852436780       26.7117112168       15.5857642938
H                41.9044910166       25.8559174412       15.8409453952
H                42.8429265647       27.8760506997       16.9836399292
H                41.4149171083       28.7977674548       16.5334891624
H                41.0403730894       28.2918337299       18.7624516630
H                40.0157806928       27.1562928443       17.8758627937
H                41.8901497205       25.4942880718       18.1774051517
H                42.6559061026       24.2991052715       19.8171644846
H                42.7114447964       24.9204507590       21.4470250779
H                41.2898746445       27.9756422352       20.6746119918
H                41.9039273752       26.9310574862       21.9088693262
N                34.2509618960       32.5403499752       20.2509082452
C                34.0298300086       32.5981666807       21.6870944019
C                32.7437153434       31.8845928869       22.0940619775
O                32.7213195668       31.0486193834       22.9802848270
C                33.9925849816       34.0736359412       22.1156545633
O                35.1019212007       34.7169253589       21.5326398935
H                34.8537217180       33.2840514348       19.9204941202
H                34.8629093666       32.1032140201       22.2012821986
H                33.0568605572       34.5353476990       21.7743858535
H                34.0387861012       34.1171313472       23.2095957088
H                35.1495939520       35.6250976005       21.8536928033
N                44.5418956230       24.2418352438       16.6351229875
C                45.0522982635       25.3170882127       17.4602889918
C                45.2380132317       26.6106967096       16.6595784697
O                44.8973529861       27.6936031807       17.1152615220
C                46.3871389496       24.9267046276       18.1331521812
C                46.7691141927       25.9726968936       19.1776342092
C                46.2769989955       23.5550798835       18.7938335341
H                45.1619634031       23.7980757008       15.9618246008
H                44.3034911955       25.5194375096       18.2333314809
H                47.1528415453       24.8889840295       17.3526373745
H                47.7485062925       25.7477400412       19.5902288269
H                46.7935792409       26.9644593703       18.7367270298
H                46.0394769501       25.9740807703       19.9826802972
H                47.2090691899       23.3272001117       19.3009801966
H                45.4749457615       23.5507259641       19.5283578383
H                46.0743174124       22.7689879817       18.0686052246
N                52.5340640068       38.0838028366       22.3712982848
C                51.3548138108       38.3491445639       23.1587279653
C                51.3814123931       37.6503528602       24.5273122821
O                50.3753772401       37.5819167064       25.2154453933
C                50.0703944865       38.0323389146       22.3940191851
C                49.8931560040       38.9992174604       21.2218456501
C                48.4705532642       39.0206614753       20.6261895307
N                47.8226725486       40.3058277374       20.8273726680
C                47.2133521124       40.7135776402       21.9408779248
N                46.8734652895       41.9953104355       22.0662016644
N                46.8998760830       39.8629377357       22.9099416991
H                52.5564176307       37.2067044641       21.8645294633
H                51.3829423791       39.4234455543       23.3959123547
H                50.1295195127       37.0054034146       22.0305630994
H                49.2560609813       38.1061514265       23.1144150781
H                50.1421661280       40.0054939939       21.5631478526
H                50.6208531087       38.7363157863       20.4536397728
H                48.5069436149       38.8492085245       19.5508320985
H                47.8628324677       38.2244074509       21.0555575899
H                48.0961182403       41.0176746879       20.1648614728
H                47.0990007258       42.6740511575       21.3573571343
H                46.3548590597       42.3120911734       22.8697771790
H                47.1314860218       38.8845943321       22.8477824493
H                46.4109133566       40.1842562760       23.7288154263
N                49.9986696066       27.1241528138       26.8261870549
C                48.6385004219       27.1607426567       26.3428806945
C                47.8875507401       25.8767392779       26.7185988349
O                48.4329295666       24.7890251978       26.8132132606
C                48.5695283102       27.4569616608       24.8268881197
C                49.5237770423       26.6348548553       23.9429675166
C                48.9360852373       26.4345133412       22.5454642756
C                50.8795424163       27.3300999073       23.7872296902
H                50.6092290338       26.4429588826       26.4021105196
H                48.1609149637       27.9903575057       26.8748973083
H                47.5392696091       27.2988456771       24.5053616481
H                48.7989273080       28.5133733077       24.6812581570
H                49.6571859067       25.6454492472       24.3872211131
H                49.6549194166       25.9151038533       21.9162570786
H                48.0244627428       25.8429065345       22.5720244590
H                48.7097915806       27.3931766308       22.0858630605
H                51.5544639974       26.6910110495       23.2210880809
H                50.7478023664       28.2653781956       23.2436077401
H                51.3326062211       27.5549477731       24.7485293679
N                46.5711304339       26.0710348502       26.8992744870
C                45.6594075386       25.1120499203       27.4936027046
C                44.3417157587       25.1694764556       26.7147545548
O                43.9965216616       26.2136893523       26.1699255350
C                45.4230746265       25.4656391601       28.9905249157
C                44.6003196061       24.3956628379       29.6961178456
C                46.7440628339       25.6592917213       29.7337871438
H                46.2178369119       27.0218858173       26.8639318353
H                46.0981420459       24.1161400969       27.4128020269
H                44.8803992835       26.4148755315       29.0254160567
H                44.3068710858       24.7298398335       30.6862086213
H                43.6925989964       24.1628215748       29.1511848190
H                45.1768219230       23.4824451640       29.8115653279
H                46.5374549194       25.7646646076       30.7952626042
H                47.4024845391       24.8039712616       29.6029694766
H                47.2688984563       26.5492475596       29.3963057517
N                43.5900291835       24.0654490051       26.6928677775
C                42.2720219157       24.0571583900       26.0827847821
C                41.2808959807       23.2992360146       26.9586491337
O                41.6153521045       22.3592215995       27.6648940186
C                42.2576644322       23.4904164344       24.6428768546
C                42.4745762750       22.0083542246       24.4939729529
C                43.5885669617       21.3692484988       25.0215615896
C                41.6056219886       21.2503448749       23.7145728369
C                43.8363091805       20.0306902783       24.7745820194
C                41.8603021494       19.9229275664       23.4303993730
C                42.9912348177       19.3012648238       23.9487242981
O                43.2577202483       18.0106735780       23.6035698917
H                43.8734238312       23.2179796270       27.1771128167
H                41.9632380878       25.1042714989       26.0127348448
H                41.3031527275       23.7541168508       24.1832307643
H                43.0233382703       24.0395217095       24.0869978648
H                44.2956316851       21.9182899907       25.6185249358
H                40.7233070585       21.7072590421       23.2923551393
H                44.7227993557       19.5674776184       25.1860655998
H                41.1992070519       19.3636221271       22.7896679399
H                44.0573595072       17.7181829484       24.0627712746
N                40.0186744688       23.7636118114       26.9417467409
C                39.0017841124       23.0704724381       27.7167718486
C                38.6695163577       21.7479679236       27.0150166227
O                38.6067819944       21.6457647384       25.8011219300
C                37.7633649594       23.9298855857       28.0227704300
C                38.2288377980       25.2448792821       28.6766120298
C                36.8137663665       23.1287371228       28.9122569555
C                37.1526887711       25.9581010963       29.4868989675
H                39.7316924170       24.4551676863       26.2651617712
H                39.4868437633       22.8152545248       28.6666705955
H                37.2233670639       24.1578739863       27.0963412076
H                39.0780660554       25.0406832018       29.3277584871
H                38.5738794258       25.9160998157       27.8929630262
H                35.9175495739       23.7053543202       29.1097820382
H                36.4905490175       22.2235667716       28.4069534289
H                37.2764853928       22.8494650144       29.8559630995
H                37.5268834120       26.9200192274       29.8281777268
H                36.2642027828       26.1172684999       28.8812898517
H                36.8873466022       25.3792754136       30.3667484142
N                40.2552541808       21.0951629167       32.1063357799
C                41.0527660168       21.4176488992       30.9538220263
C                42.2410481112       20.4760056034       30.8005255334
O                42.7376809951       19.8613901882       31.7322489942
C                41.5835985111       22.8818487253       30.9887268288
O                42.6746974151       23.0200177841       31.8603673693
C                40.4683789957       23.8643339856       31.3249660600
H                40.7535923752       20.9139623184       32.9705603781
H                40.4078410167       21.3102741706       30.0779593170
H                41.9826135229       23.0787359072       29.9876741972
H                42.3270903041       23.1672216408       32.7499874068
H                40.7339925117       24.8590308913       30.9791279942
H                39.5366889455       23.5583081601       30.8610053157
H                40.3031340309       23.9216042074       32.3991517401
N                47.7267791093       22.1108324075       26.0931877308
C                47.9885102158       21.9701102566       24.6742167170
C                49.4762934200       22.2004774541       24.3757621745
O                49.9088040435       23.2200940373       23.8757857167
C                47.1336782395       22.9435176807       23.8588894900
C                46.8025685995       22.4345537919       22.4482439913
C                48.0610826392       22.0698910619       21.6642504522
C                45.8182187004       21.2676294382       22.4755862418
H                47.7733883083       23.0503125026       26.4748745113
H                47.7413161832       20.9310872034       24.4299468044
H                46.2016156863       23.1264509364       24.3950236485
H                47.6899326989       23.8805081155       23.7781845909
H                46.3180061827       23.2656796690       21.9255021916
H                47.7908716996       21.7498996881       20.6617344145
H                48.7238217588       22.9289422659       21.6009195721
H                48.6118325416       21.2541628834       22.1281891620
H                45.6836402654       20.8686420934       21.4752900322
H                46.1695192309       20.4608274114       23.1141241485
H                44.8505492324       21.5941819844       22.8453922776
H                31.3304352320       34.7186955405       30.6927555272
H                32.5047112940       30.1701281748       29.1638040166
H                32.9862510595       29.5490135971       26.3587888016
H                33.3831397026       26.1028595780       25.9596855652
H                37.6681559414       23.8284335465       24.0392935830
H                49.2184828127       30.8122381309       34.0996128455
H                43.6807408684       32.3088950605       35.6882608145
H                44.2890147974       29.6844503297       37.5915818919
H                41.1628755903       32.7956185418       34.6724396358
H                43.3568494218       32.9677839926       18.3438906442
H                42.0306374212       29.2744581545       14.7688768749
H                41.5128684103       25.6326752032       13.0605680084
H                34.6373343099       31.7559468785       20.0377694647
H                31.8846607519       32.0983255659       21.6289345209
H                44.2611438896       23.5672231681       17.1605532982
H                45.6443998527       26.5795236446       15.7464091786
H                52.6309194266       38.7269610671       21.7492319554
H                52.2305498616       37.2441432558       24.8648908907
H                50.3885424773       27.9232998599       26.6870355428
H                38.4940576541       20.9253005635       27.5557870527
H                39.6969685318       21.7778521568       32.2859256891
H                42.6550674063       20.3357256449       29.9011315394
H                46.8971506525       21.8140187931       26.2765406747
H                50.1458575565       21.4906075835       24.5943225410
