 126 
 
N               220.0395591078       75.8205365161      123.3418351771
C               219.7924518012       76.9655348942      124.1952158729
C               218.4406039770       77.6239056281      123.8633944921
O               218.3614338229       78.7419998521      123.3790813390
C               220.9105290294       77.9862386689      124.0353177047
C               222.3513312706       77.3820011344      124.0407497498
O               222.6171460462       76.4758447859      124.8427393985
O               223.1432315097       77.9220795091      123.2318410904
H               220.4750075680       76.0055897872      122.4456798092
H               219.7514509670       76.5768980010      125.2205718491
H               220.7703232325       78.5074193922      123.0889576229
H               220.8472701184       78.7086366785      124.8507401497
N               217.3699132360       76.8937572373      124.2112146730
C               216.0163997941       77.3227310867      123.9429534252
C               215.2384800429       76.2854644722      123.1320849902
O               215.6985201042       75.1820069375      122.8797033006
H               217.4953059178       75.9309102064      124.4897015613
H               215.4826823836       77.4887485149      124.8854519961
H               216.0746715558       78.2626812069      123.3886185666
N               214.0208757091       76.6928229716      122.7456998978
C               213.1683192743       75.8271660482      121.9588325047
C               213.8446932015       75.6204947650      120.6056122537
O               214.7445360363       76.3572790542      120.2111508082
C               211.7798075191       76.4284441136      121.7735043135
C               210.9476483119       76.4909322499      123.0870308124
O               211.5145499270       76.3390241679      124.1717683356
O               209.7185352723       76.7113013809      122.9287504383
H               213.6421869436       77.5700471451      123.0624697076
H               213.0907757602       74.8541160886      122.4627886538
H               211.8602519074       77.4448718009      121.3753767882
H               211.2081916181       75.8423990929      121.0521544597
N               213.4359292806       74.5645426101      119.9001290293
C               213.9804493007       74.3263257558      118.5790283725
C               213.2931830444       75.2570565862      117.5755378278
O               212.0993737331       75.5333533277      117.6480580270
C               213.8289349736       72.8639476470      118.1643392951
C               214.9249192846       71.9551438134      118.7348539249
C               214.9583731634       71.9870107617      120.2609061992
C               214.6983083009       70.5302178587      118.2353477411
H               212.5933933767       74.0809846048      120.1765025158
H               215.0406400474       74.5953547361      118.6270914430
H               212.8494225167       72.5076983810      118.4874078439
H               213.8662810133       72.8149372071      117.0748474436
H               215.8898349997       72.3093750029      118.3588734378
H               215.6606400943       71.2470871360      120.6382140746
H               215.2584087711       72.9628870517      120.6329262929
H               213.9731351481       71.7656951017      120.6675762428
H               215.4707955476       69.8702893034      118.6167528128
H               213.7348637802       70.1612226931      118.5777474038
H               214.7129050063       70.4919251445      117.1495760277
N               214.0990962479       75.7367156629      116.6254190304
C               213.6390694859       76.6783106107      115.6219562009
C               213.2551514159       75.8611680768      114.3807038269
O               214.0689963152       75.5725627614      113.5074966838
C               214.7164644335       77.7228756054      115.3316319597
C               214.9217073015       78.7243931257      116.4731681293
C               215.7662992231       78.2087872999      117.6425365225
C               215.7426763086       79.2184377290      118.7885874626
N               216.2732993944       78.6157300123      120.0418025140
H               215.0536225115       75.3927576169      116.5124748423
H               212.7342770385       77.1666892150      116.0028338402
H               215.6478210751       77.2067537435      115.0935412061
H               214.3823282076       78.2800352537      114.4547172036
H               215.3848636231       79.6165213393      116.0497922247
H               213.9393187863       79.0229889471      116.8469568410
H               215.3294744696       77.2821372085      118.0083839620
H               216.7835714135       78.0214587832      117.2948002490
H               216.3193029042       80.1084049468      118.5398383174
H               214.7032401919       79.5072493960      118.9576066783
H               216.2270594277       79.2846069135      120.8191763188
H               215.6718399824       77.7892204845      120.2908449219
H               217.2400615689       78.2914666136      119.9212201559
N               209.6798931669       78.5561571709      116.8810165060
C               210.0247358493       77.9565457053      118.1602891607
C               208.9582285400       76.9080972971      118.4863093353
O               207.7663931813       77.2022390838      118.5021913953
C               210.0446884153       79.0021761975      119.2591266834
C               211.3713634850       79.8405752375      119.2708447460
O               212.4115899619       79.2508587781      118.9419262106
O               211.2699708380       81.0191979516      119.6513083487
H               209.4704042592       79.5442526730      116.8353036095
H               211.0127536725       77.4862192906      118.0841688399
H               209.1872763640       79.6718552602      119.1689355270
H               209.9767690781       78.5041114842      120.2322241939
N               209.4303903546       75.6965968690      118.7899887347
C               208.5606542653       74.5772165302      119.0599211510
C               208.9799527200       73.8445533729      120.3342223308
O               210.1451658742       73.6005857413      120.6066476352
C               208.5510502147       73.5483475374      117.9011967845
C               207.8065597313       74.1178004414      116.6991283213
C               209.9669647009       73.1364641435      117.5128609239
H               210.4039213750       75.4976203131      118.5961748424
H               207.5547435678       74.9981935280      119.1712093521
H               208.0073952384       72.6637117075      118.2485494596
H               207.8319068687       73.4099438962      115.8762956382
H               206.7635650917       74.3206341438      116.9386113216
H               208.2667598423       75.0486126691      116.3753081464
H               209.9207694600       72.2769621118      116.8516184590
H               210.4630221677       73.9584065357      117.0037973893
H               210.5353230874       72.8722369963      118.4009015540
N               207.9391813999       73.4153133067      121.0714345246
C               208.0338217484       72.4899518965      122.1807926784
C               207.5751348414       71.0728657377      121.8007464213
O               207.7270312249       70.1289653778      122.5595859842
C               207.1909172095       72.9766584339      123.3646865450
C               207.7333201740       74.2897393409      123.9230410855
C               206.7908148023       74.9111433678      124.9518409384
C               207.4527451965       76.0537226207      125.7119569359
N               207.8775763507       77.1536293504      124.8102808354
H               207.0109476239       73.7381290531      120.8395916981
H               209.0896284834       72.4405338425      122.4676434305
H               206.1570000022       73.0870838130      123.0288191005
H               207.2056200628       72.1972395492      124.1269413637
H               208.7065833188       74.1006293221      124.3802042794
H               207.8993299141       74.9808257046      123.0943000845
H               205.8841845478       75.2541907469      124.4513985949
H               206.4995964287       74.1475026602      125.6732623368
H               206.7463325812       76.4547296726      126.4411166425
H               208.3396327787       75.6822966876      126.2254048709
H               208.2171772057       77.9514212466      125.3551204320
H               208.6788987391       76.8751555448      124.1261129150
H               207.0980513887       77.4564318730      124.2176704182
H               220.5862935835       75.2436126613      123.7640203010
H               212.3141351919       75.5442730963      114.2621035000
H               210.3624396925       78.4474570668      116.3045492235
H               207.1414104971       70.9084710193      120.9148245457
