312
Properties=species:S:1:pos:R:3 pbc="F F F"
N      46.17100000      53.64200000      44.49400000 
C      45.00500000      53.07500000      43.88500000 
C      45.35300000      52.47200000      43.00400000 
O      44.43600000      50.99800000      43.01300000 
H      46.84700000      54.10100000      44.31500000 
H      45.86700000      54.61800000      45.54300000 
H      46.54700000      52.94600000      45.39300000 
H      44.24000000      53.00800000      44.68700000 
H      44.64300000      54.32700000      43.49100000 
N      46.39200000      52.51300000      42.11700000 
C      46.50000000      51.36500000      41.08800000 
C      46.48200000      49.86200000      41.56600000 
O      46.18800000      49.01500000      41.11600000 
C      47.77400000      51.68900000      40.33700000 
H      46.72300000      53.29400000      42.05500000 
H      45.53000000      51.19800000      40.40100000 
H      47.92100000      50.99600000      39.41500000 
H      47.44500000      52.81000000      39.78800000 
H      48.59000000      51.85100000      40.89900000 
N      47.45100000      50.25100000      42.83100000 
C      47.70900000      48.49300000      43.21900000 
C      46.45000000      47.93500000      43.55900000 
O      46.15500000      46.49000000      43.60900000 
C      48.76700000      48.49200000      44.49100000 
H      47.75100000      50.49500000      43.15800000 
H      47.95600000      47.96100000      42.64300000 
H      48.79400000      47.67300000      44.86500000 
H      49.46700000      49.02100000      44.17400000 
H      48.12600000      49.37400000      45.33900000 
N      45.35400000      48.84000000      44.22100000 
C      43.92600000      48.17800000      44.74100000 
C      43.58900000      47.82000000      43.53400000 
O      42.59800000      46.64800000      43.42900000 
C      43.43200000      49.10400000      45.40700000 
C      42.20300000      48.62400000      46.03700000 
C      44.15500000      49.48800000      46.64800000 
H      45.58800000      49.70400000      44.26900000 
H      44.28800000      47.25000000      45.22500000 
H      43.30600000      50.17200000      44.84500000 
H      41.50200000      49.33600000      46.41300000 
H      41.33900000      48.56200000      44.92000000 
H      41.99000000      47.95900000      46.23300000 
H      43.65100000      50.22500000      47.40500000 
H      44.28400000      48.72600000      47.34300000 
H      45.10700000      49.91800000      46.54800000 
N      43.37000000      48.62700000      42.36800000 
C      42.68400000      48.34700000      41.12400000 
C      43.56700000      46.88900000      40.77200000 
O      42.46600000      45.92300000      40.18200000 
C      43.24400000      49.19000000      40.08000000 
C      42.87400000      48.98100000      38.85500000 
C      41.62700000      48.97200000      38.13300000 
C      43.92700000      48.31200000      37.92600000 
C      41.46100000      48.63800000      36.83600000 
C      43.70600000      47.95800000      37.01200000 
C      42.48100000      47.83400000      35.81300000 
H      43.93700000      49.49100000      42.43100000 
H      41.74500000      48.05700000      41.26900000 
H      42.32100000      50.19600000      40.35500000 
H      43.93700000      49.65500000      40.23200000 
H      40.93900000      49.34700000      38.51900000 
H      44.89400000      48.25800000      38.54100000 
H      40.62200000      48.59400000      36.27800000 
H      44.79100000      47.38400000      36.14000000 
H      42.45400000      47.64700000      35.24200000 
N      44.50100000      46.90400000      40.66100000 
C      44.98500000      45.51700000      40.36300000 
C      44.69700000      44.17300000      41.14000000 
O      44.30400000      43.34700000      40.68200000 
C      46.89200000      45.74300000      40.15700000 
C      47.15800000      46.32100000      38.93400000 
C      46.66900000      45.41600000      37.62900000 
C      47.56300000      47.31300000      38.82800000 
C      47.39500000      46.31500000      36.35800000 
C      48.05100000      47.85300000      37.50000000 
C      47.78800000      47.73700000      36.64800000 
H      45.18600000      47.34200000      40.97000000 
H      44.74300000      45.26400000      39.25400000 
H      47.04000000      45.95500000      40.89400000 
H      47.07200000      44.37000000      40.09800000 
H      46.41700000      44.71100000      37.64000000 
H      47.88300000      47.94600000      39.91600000 
H      46.98500000      45.76200000      35.60600000 
H      48.47500000      48.95000000      37.68900000 
H      48.05400000      47.90200000      35.52700000 
N      44.85700000      44.61800000      42.58300000 
C      44.32600000      43.58100000      43.12500000 
C      42.89100000      42.89800000      43.06300000 
O      42.60300000      41.98100000      42.85800000 
H      45.02500000      45.13900000      42.70600000 
H      44.97400000      42.51500000      43.10900000 
H      44.43700000      43.74500000      44.30500000 
N      42.25000000      44.06800000      42.82700000 
C      40.73800000      43.74300000      42.41900000 
C      40.44000000      43.24800000      41.40800000 
O      39.64200000      42.15100000      41.06100000 
C      39.83600000      45.06400000      42.49100000 
S      39.68200000      45.74200000      44.37500000 
H      42.37700000      45.03000000      42.90800000 
H      40.27200000      43.17200000      43.29100000 
H      40.31600000      45.74500000      41.97800000 
H      39.08700000      44.97900000      42.28600000 
H      41.01900000      46.30600000      44.33200000 
N      41.21500000      43.56000000      39.92300000 
C      41.22400000      43.03300000      38.92200000 
C      41.12500000      41.60600000      38.78500000 
O      40.75300000      40.73400000      38.37600000 
C      41.63300000      43.76700000      37.76000000 
O      40.87600000      43.39400000      36.77900000 
C      43.20900000      43.62500000      37.81400000 
H      41.84700000      44.43100000      40.38100000 
H      39.71300000      43.03500000      38.64000000 
H      41.45800000      44.91000000      38.00800000 
H      41.39600000      43.96800000      35.69100000 
H      43.52900000      44.27100000      36.88300000 
H      43.56400000      43.62700000      38.55800000 
H      43.27600000      42.36900000      37.18200000 
N      42.62700000      41.29700000      39.67100000 
C      42.62000000      39.82800000      39.58700000 
C      41.99400000      39.15300000      40.51700000 
O      41.61400000      37.85500000      40.14300000 
C      44.57200000      39.90900000      40.18600000 
C      45.37000000      40.49400000      39.26200000 
C      45.05800000      40.21400000      37.60500000 
C      46.34000000      41.28500000      39.42200000 
C      45.92400000      40.90100000      37.06100000 
C      46.84800000      41.64200000      38.90300000 
C      47.17500000      41.66700000      37.17700000 
H      42.91900000      41.92100000      40.03100000 
H      42.79600000      39.43600000      38.56100000 
H      44.41200000      40.23700000      41.04500000 
H      44.56000000      38.64200000      40.19500000 
H      44.51500000      39.80800000      37.41200000 
H      46.33400000      41.27000000      40.62500000 
H      45.90100000      40.78300000      35.79200000 
H      48.04500000      42.47500000      39.19400000 
H      47.58100000      42.15100000      36.78500000 
N      32.94900000      45.98300000      36.45100000 
C      33.68800000      47.16200000      35.75000000 
C      33.67300000      48.38500000      36.52300000 
O      34.65600000      49.26600000      36.58700000 
C      33.28500000      47.17500000      34.46800000 
C      34.24200000      48.07100000      33.44700000 
C      31.80800000      47.30400000      34.25300000 
C      35.68900000      47.53400000      33.51700000 
H      32.50100000      45.32800000      35.99000000 
H      34.75400000      46.90900000      35.94100000 
H      33.46800000      45.99500000      34.02800000 
H      33.92500000      48.07900000      32.66800000 
H      34.21900000      48.89200000      34.04300000 
H      31.56800000      47.37600000      33.01300000 
H      31.23200000      46.95200000      34.78600000 
H      31.78200000      48.67300000      34.33000000 
H      36.31300000      48.16000000      32.86000000 
H      36.11100000      47.47000000      34.51800000 
H      35.68400000      46.33800000      33.14400000 
N      32.06500000      48.79200000      36.81700000 
C      32.11800000      50.21900000      37.68100000 
C      33.14900000      50.32500000      38.73100000 
O      33.76900000      51.41700000      38.80600000 
C      30.83000000      50.58000000      37.74900000 
C      29.70300000      50.40900000      37.04500000 
O      29.76000000      49.18300000      36.06000000 
N      28.76700000      51.17600000      36.51100000 
H      31.63300000      48.45300000      36.69800000 
H      32.49500000      50.95000000      36.69700000 
H      30.50600000      49.70000000      38.72100000 
H      30.68900000      51.38600000      38.25100000 
H      28.25100000      51.19500000      36.13100000 
H      28.87800000      51.86200000      37.10700000 
N      32.85500000      49.31800000      39.29400000 
C      33.65800000      49.72400000      40.95900000 
C      35.63000000      49.36700000      40.71200000 
O      35.74200000      49.88300000      41.28600000 
C      33.20400000      48.48400000      41.92800000 
C      33.76200000      47.29400000      41.47100000 
C      31.79500000      48.80100000      41.98400000 
C      32.78900000      46.00300000      42.47700000 
H      32.60900000      48.66200000      39.39400000 
H      33.53900000      50.49900000      41.14400000 
H      33.62400000      48.91000000      42.83100000 
H      33.49000000      46.86600000      40.54300000 
H      34.76200000      47.16700000      41.71500000 
H      31.30300000      48.20400000      42.97400000 
H      31.38000000      49.81300000      42.01800000 
H      31.14400000      48.21000000      41.06200000 
H      33.48500000      45.31100000      42.46400000 
H      33.14200000      46.56800000      43.69100000 
H      32.18400000      46.12300000      42.38100000 
N      35.35800000      48.56300000      39.47200000 
C      36.98700000      48.66800000      39.40400000 
C      37.73700000      49.77400000      39.00700000 
O      38.52100000      50.04800000      39.15200000 
C      37.08900000      47.44900000      38.44500000 
C      38.77000000      47.25100000      37.96700000 
C      39.22900000      46.32900000      39.48800000 
C      39.03500000      46.06700000      36.80800000 
H      34.86900000      48.19700000      39.05300000 
H      37.53500000      48.20300000      40.20700000 
H      36.58500000      46.53100000      38.50000000 
H      36.77000000      47.75300000      37.23000000 
H      39.15500000      47.90600000      37.84800000 
H      40.16100000      46.12700000      39.16700000 
H      39.11400000      47.08700000      40.08700000 
H      38.63700000      45.46700000      39.61400000 
H      39.68600000      45.88200000      36.75000000 
H      38.12200000      45.05000000      37.07300000 
H      38.30700000      46.58000000      35.94400000 
N      36.63000000      50.40100000      38.09900000 
C      37.44500000      52.02000000      37.60300000 
C      37.18700000      52.55400000      39.01600000 
O      38.34300000      53.39700000      39.29700000 
C      36.09900000      52.50000000      36.91600000 
H      36.06500000      50.28200000      37.85700000 
H      38.21500000      51.87900000      37.37600000 
H      36.55700000      53.55800000      36.56900000 
H      36.23500000      51.97500000      35.89200000 
H      35.27400000      52.59900000      37.28100000 
N      36.48300000      52.70100000      39.95900000 
C      36.39800000      53.67300000      41.18100000 
C      37.64200000      53.14200000      41.90500000 
O      38.26300000      53.89900000      42.51100000 
C      35.13800000      53.14600000      41.86500000 
C      33.80700000      53.33300000      41.69600000 
O      33.86200000      54.71100000      40.28000000 
O      32.95200000      53.10200000      41.63300000 
H      35.59000000      52.08000000      39.57300000 
H      36.42400000      54.41300000      40.90800000 
H      35.05200000      51.97200000      42.13200000 
H      35.32900000      53.60600000      42.94900000 
N      38.27200000      52.07000000      42.16900000 
C      38.98400000      51.20800000      42.85200000 
C      40.44600000      51.76400000      42.61500000 
O      41.14800000      51.46000000      43.01800000 
C      38.56100000      49.89300000      42.80700000 
H      37.10900000      50.96500000      41.34400000 
H      38.87600000      51.67200000      43.75700000 
H      39.85900000      49.31200000      43.58300000 
H      38.11000000      49.47200000      43.07600000 
H      39.06000000      49.37200000      41.72800000 
N      40.40300000      52.37000000      41.05400000 
C      41.59400000      52.86700000      40.88400000 
C      42.08700000      54.12000000      41.88300000 
O      43.36600000      54.48500000      41.90300000 
C      41.71300000      53.26100000      39.37000000 
C      42.75800000      52.67700000      38.71000000 
C      42.39100000      53.28300000      37.09500000 
C      44.16700000      53.16100000      39.02500000 
H      39.76100000      52.54000000      40.67000000 
H      42.60800000      52.18100000      41.03900000 
H      40.85800000      53.15000000      39.07400000 
H      41.83600000      54.59200000      39.33800000 
H      42.81500000      51.72400000      38.71500000 
H      43.38100000      52.56300000      36.40000000 
H      41.74000000      52.61800000      36.79800000 
H      42.58000000      54.05000000      36.96300000 
H      45.06500000      52.72500000      38.37900000 
H      44.30300000      54.50200000      38.74500000 
H      44.40100000      53.11000000      40.04000000 
N      41.08300000      54.71200000      42.44900000 
C      41.34900000      55.89300000      43.31100000 
C      42.06600000      55.64600000      44.45400000 
O      42.13600000      54.41400000      45.03300000 
H      40.33500000      54.37600000      42.46500000 
H      42.15600000      56.50300000      42.69000000 
H      40.73400000      56.37300000      43.40000000 
N      42.49800000      56.38100000      45.16100000 
C      43.46300000      56.41000000      46.51500000 
C      42.12900000      56.29000000      47.40700000 
O      42.61300000      55.57100000      48.88900000 
C      44.04900000      57.69300000      46.77000000 
C      43.40000000      58.75700000      45.83100000 
C      42.84300000      57.99400000      44.93200000 
H      43.98600000      55.50500000      46.52100000 
H      44.09300000      57.92500000      47.94000000 
H      44.97200000      57.53400000      46.27800000 
H      42.15500000      59.05200000      46.66900000 
H      43.71100000      59.49900000      45.77300000 
H      41.68800000      58.34800000      44.35100000 
H      43.45900000      58.01900000      43.99100000 
N      40.94100000      56.52000000      47.51600000 
C      40.08300000      56.43600000      48.32300000 
C      39.58600000      55.14500000      48.63000000 
O      39.68600000      54.16300000      47.64600000 
H      40.80800000      56.98200000      46.45500000 
H      40.28700000      56.85500000      49.39500000 
H      39.02800000      57.05900000      48.06800000 
N      35.62400000      47.05800000      48.66100000 
C      36.04300000      46.66400000      47.11100000 
C      36.43600000      44.80000000      46.78700000 
O      36.31900000      44.41400000      46.21300000 
C      37.26000000      47.17100000      46.53200000 
C      36.77400000      48.80100000      46.32400000 
C      35.75700000      48.93900000      45.32600000 
C      37.44800000      49.91800000      47.06900000 
C      35.54100000      50.46000000      45.05000000 
C      36.80500000      51.07500000      46.58500000 
C      36.13600000      51.13300000      45.73700000 
H      35.92100000      47.43800000      48.83000000 
H      35.35600000      46.49200000      46.44500000 
H      38.01900000      47.40800000      47.59800000 
H      37.67800000      46.98200000      45.88400000 
H      35.46100000      48.27200000      44.84500000 
H      38.04000000      49.69400000      47.75400000 
H      34.79800000      50.43000000      44.25700000 
H      37.53900000      52.07800000      47.21400000 
H      35.74100000      52.46900000      45.38800000 
H      41.82265200      39.57146032      41.40892535 
H      33.53736734      45.50651574      36.93760725 
H      39.18148758      54.96514920      49.52667352 
H      34.76381045      47.32189375      48.68183329 
H      36.86887134      44.24893115      47.50040418 
