95
Properties=species:S:1:pos:R:3 pbc="F F F"
N      45.63100000      38.35600000      83.73800000 
C      46.47200000      39.51600000      83.37700000 
C      47.36900000      39.05700000      82.31600000 
O      47.90600000      37.90400000      82.29200000 
C      47.16500000      40.05500000      84.59600000 
C      46.32500000      41.02100000      85.30700000 
C      47.84700000      39.01600000      85.45100000 
H      46.08700000      37.58900000      84.07900000 
H      45.80600000      40.22600000      82.98300000 
H      48.02200000      40.68800000      84.12700000 
H      46.85000000      41.42900000      86.22100000 
H      46.00500000      41.84300000      84.74100000 
H      45.43900000      40.50400000      85.68100000 
H      48.47700000      39.47700000      86.17300000 
H      47.00100000      38.50500000      86.00200000 
H      48.34200000      38.30100000      84.88500000 
N      47.75600000      40.02500000      81.48600000 
C      48.66300000      39.73700000      80.35900000 
C      49.54900000      40.94000000      80.18000000 
O      49.22600000      42.05400000      80.45600000 
C      47.83400000      39.57800000      79.11300000 
H      47.29300000      40.91500000      81.52100000 
H      49.19400000      38.88900000      80.54300000 
H      48.47000000      39.27300000      78.26700000 
H      47.09500000      38.79000000      79.25700000 
H      47.35000000      40.46200000      78.81700000 
N      50.73600000      40.65100000      79.57700000 
C      51.57600000      41.67400000      79.03700000 
C      51.48700000      41.67600000      77.54700000 
O      51.51400000      40.63500000      76.97900000 
C      53.05700000      41.42700000      79.52100000 
C      53.28100000      41.87100000      80.89500000 
C      54.55300000      41.46400000      81.44100000 
O      55.34300000      40.71100000      80.76700000 
N      54.91200000      41.80000000      82.68000000 
H      50.89200000      39.71200000      79.28700000 
H      51.24400000      42.66800000      79.47300000 
H      53.24100000      40.38400000      79.37000000 
H      53.68300000      41.97300000      78.83600000 
H      53.26500000      42.98600000      80.96800000 
H      52.48200000      41.53800000      81.55200000 
H      54.28800000      42.35400000      83.19500000 
H      55.72100000      41.51400000      83.06500000 
N      53.28400000      45.41800000      80.24800000 
C      52.74900000      45.88700000      81.56200000 
C      51.60600000      44.96600000      81.82200000 
O      50.92600000      44.66800000      80.89000000 
C      52.28200000      47.31000000      81.50100000 
C      51.84400000      47.96000000      82.76700000 
C      53.02000000      48.00400000      83.75900000 
O      53.48300000      47.14700000      84.28600000 
N      53.61400000      49.28700000      83.77300000 
H      52.61800000      44.99700000      79.68500000 
H      53.55100000      45.80600000      82.33600000 
H      53.05900000      47.92000000      81.04800000 
H      51.47200000      47.34300000      80.78900000 
H      51.38400000      48.85200000      82.64500000 
H      51.13200000      47.27500000      83.30300000 
H      53.19100000      50.06800000      83.25900000 
H      54.38600000      49.41800000      84.29400000 
N      51.40700000      44.49100000      83.13100000 
C      50.35400000      43.53800000      83.30500000 
C      49.02900000      44.28800000      83.24900000 
O      48.81800000      45.27800000      83.98400000 
C      50.51800000      42.77300000      84.56400000 
C      50.59600000      43.68000000      85.82700000 
O      49.66700000      43.38400000      86.70900000 
O      51.42900000      44.51700000      85.81800000 
H      51.90300000      44.81800000      83.89200000 
H      50.33600000      42.86500000      82.43900000 
H      49.73700000      42.05700000      84.64200000 
H      51.46600000      42.25500000      84.49800000 
N      48.09600000      43.67200000      82.40400000 
C      46.78100000      44.32500000      82.25600000 
C      45.73000000      43.38600000      82.68600000 
O      45.72400000      42.16700000      82.20800000 
C      46.63100000      44.59400000      80.79300000 
C      47.60400000      45.67200000      80.27600000 
C      47.46700000      45.78000000      78.79500000 
C      47.49700000      46.96300000      80.97500000 
H      48.37100000      43.03400000      81.81900000 
H      46.72200000      45.17900000      82.87300000 
H      46.63000000      43.76800000      80.23700000 
H      45.58500000      45.07900000      80.67700000 
H      48.57500000      45.25100000      80.48300000 
H      48.14900000      46.47700000      78.36200000 
H      47.58400000      44.83800000      78.27900000 
H      46.43800000      46.15100000      78.52600000 
H      48.18900000      47.70700000      80.55000000 
H      46.49100000      47.38800000      80.81600000 
H      47.64500000      46.91800000      81.98600000 
H      45.04449959      38.59727584      84.37659474 
H      51.40687251      42.54122247      77.05205589 
H      53.61636801      46.11883933      79.79153998 
H      45.03070015      43.68204613      83.33664307 
