405
Properties=species:S:1:pos:R:3 pbc="F F F"
N      16.19900000      12.37000000      22.56800000 
C      17.76100000      12.90200000      21.96900000 
C      18.64900000      12.16700000      21.52500000 
O      19.49100000      12.30900000      20.40600000 
C      18.10500000      14.07900000      22.94700000 
C      16.89700000      14.86200000      23.42700000 
C      18.97600000      15.03300000      22.51500000 
C      16.10800000      15.84400000      22.56000000 
H      16.10000000      12.39300000      22.93000000 
H      17.34200000      13.64800000      20.77700000 
H      18.44500000      13.61200000      23.63600000 
H      16.20900000      14.29200000      24.03500000 
H      17.33700000      15.60200000      24.23400000 
H      19.39300000      15.70900000      22.90500000 
H      20.08800000      14.45900000      21.96100000 
H      18.70400000      15.56500000      21.27300000 
H      15.27400000      16.31100000      23.07600000 
H      16.63500000      16.49000000      22.02300000 
H      15.55600000      15.15100000      21.77300000 
N      18.80200000      10.88700000      17.87600000 
C      19.33200000      12.01200000      17.03200000 
C      20.76400000      12.24700000      16.45100000 
O      21.07800000      12.78700000      15.95000000 
C      18.81800000      13.55300000      17.51200000 
H      18.53300000      11.34800000      18.81700000 
H      18.73400000      11.89600000      15.91800000 
H      19.03000000      14.17200000      16.89300000 
H      17.70400000      13.41700000      17.66100000 
H      19.22200000      13.58500000      18.42700000 
N      29.66200000      18.86500000      14.38500000 
C      28.65100000      19.06400000      15.12300000 
C      29.43700000      19.74700000      16.48600000 
O      29.05200000      20.83700000      17.03800000 
C      28.01400000      17.96200000      15.91300000 
C      26.67100000      18.37000000      16.62600000 
C      25.45900000      18.73600000      15.92900000 
C      26.61900000      18.41200000      17.65700000 
C      24.22800000      19.17700000      16.77200000 
C      25.39900000      18.83300000      18.56600000 
C      24.40500000      19.12700000      17.48200000 
H      29.71200000      17.69700000      14.03600000 
H      28.20100000      19.90600000      14.91600000 
H      27.54100000      17.43500000      14.72600000 
H      28.36000000      17.34100000      16.22800000 
H      25.43900000      18.66900000      14.55200000 
H      27.48800000      18.16100000      18.42300000 
H      23.47500000      19.36600000      15.87400000 
H      25.48500000      18.88600000      19.68400000 
H      23.35500000      19.48900000      18.43000000 
N      30.39100000      23.54400000      15.76200000 
C      29.54500000      24.50100000      15.57600000 
C      28.80900000      24.74100000      16.72200000 
O      28.22600000      26.02800000      16.97100000 
C      28.42800000      23.89300000      14.49900000 
C      27.63400000      25.22500000      14.04300000 
C      28.69400000      26.14300000      12.94200000 
C      27.64100000      27.50800000      12.70900000 
N      28.76000000      28.46900000      12.66800000 
H      30.43700000      22.47200000      15.39200000 
H      29.95600000      25.30200000      15.27000000 
H      29.06800000      23.50000000      13.67200000 
H      27.89100000      23.26400000      14.79500000 
H      26.86300000      24.67000000      13.16700000 
H      27.21000000      25.57000000      14.52600000 
H      29.33200000      26.42700000      13.64900000 
H      28.91700000      25.62300000      12.20400000 
H      27.40600000      27.28100000      11.53900000 
H      26.99000000      27.56300000      13.21300000 
H      28.13100000      29.48000000      12.29100000 
H      28.86200000      28.73900000      13.70700000 
H      29.53100000      28.48100000      12.17200000 
N      28.72800000      23.63400000      17.86500000 
C      27.91000000      24.12700000      19.06200000 
C      28.32900000      25.28000000      19.63700000 
O      27.46700000      26.24600000      20.26500000 
C      28.29700000      22.86300000      19.96100000 
C      27.39900000      22.34400000      21.30100000 
C      27.97400000      23.66400000      22.52300000 
C      25.80100000      22.80200000      21.12600000 
H      28.95400000      23.08800000      17.65000000 
H      26.96300000      24.20500000      18.89500000 
H      27.96000000      21.99800000      19.36300000 
H      29.14800000      22.79000000      20.17200000 
H      27.59900000      21.83200000      21.53700000 
H      27.36200000      23.23400000      23.36300000 
H      28.81900000      23.57700000      22.51500000 
H      27.51500000      24.68400000      22.25200000 
H      25.38900000      22.43900000      21.93700000 
H      25.54100000      23.74700000      20.80300000 
H      25.58300000      22.02100000      20.23500000 
N      26.61500000      28.79900000      18.20600000 
C      25.14600000      29.11400000      18.16800000 
C      24.71000000      30.06100000      19.14000000 
O      25.28500000      30.17900000      20.28300000 
C      24.30600000      27.89800000      18.32100000 
C      24.14900000      27.14600000      19.82800000 
C      22.95600000      27.76100000      17.75800000 
H      26.91700000      27.97800000      18.72200000 
H      24.96000000      29.40700000      17.14600000 
H      24.89300000      26.95800000      17.70200000 
H      23.90900000      26.26100000      19.78500000 
H      25.35500000      27.20900000      20.26100000 
H      23.74100000      27.80300000      20.34700000 
H      22.44200000      26.96800000      17.82700000 
H      22.31700000      28.63300000      18.37400000 
H      22.92400000      28.16500000      16.74600000 
N      16.36600000      22.48700000      25.56000000 
C      17.24600000      21.60000000      25.26900000 
C      16.55600000      20.87300000      23.80000000 
O      17.43600000      20.76400000      22.82600000 
H      16.23200000      22.25300000      26.90000000 
H      18.21800000      22.15200000      24.74900000 
H      17.58200000      20.84300000      25.71400000 
N      15.52900000      20.64300000      23.82800000 
C      14.81900000      20.11000000      22.77900000 
C      14.63700000      21.16700000      21.18600000 
O      14.83500000      20.84100000      20.60300000 
C      13.43900000      19.39100000      22.76500000 
H      14.89100000      20.67400000      24.73300000 
H      15.26700000      19.27100000      22.28000000 
H      12.82500000      19.40400000      22.24700000 
H      13.36000000      18.83800000      23.72800000 
H      12.63800000      20.62300000      23.56700000 
N      14.49200000      22.27800000      22.03700000 
C      14.52500000      23.52700000      20.88900000 
C      16.12300000      23.82300000      20.47100000 
O      16.05000000      24.00900000      19.24000000 
C      13.87500000      24.69900000      21.59900000 
C      12.40100000      24.66000000      21.80500000 
C      11.78700000      25.91200000      22.46600000 
O      12.51700000      26.38900000      23.56000000 
O      10.85800000      26.39800000      22.14100000 
H      14.38800000      22.66700000      22.85300000 
H      13.85800000      23.16200000      20.02700000 
H      14.42700000      25.05800000      22.40000000 
H      14.00100000      25.61800000      20.72200000 
H      11.78900000      24.43100000      20.98600000 
H      12.23800000      23.78600000      22.60300000 
N      16.60500000      23.80300000      21.08000000 
C      18.21700000      24.21200000      20.90200000 
C      18.74700000      23.14500000      20.07200000 
O      19.61400000      23.46300000      19.02100000 
C      19.08000000      24.28900000      22.44300000 
C      20.52600000      24.63600000      22.17800000 
C      20.70300000      26.16500000      21.82700000 
C      21.37100000      24.36000000      23.21300000 
H      16.65100000      23.70800000      22.39700000 
H      18.30900000      25.01600000      20.48200000 
H      18.62600000      24.82900000      22.88400000 
H      19.07700000      23.22800000      22.73500000 
H      21.01700000      24.02900000      21.26900000 
H      21.67000000      26.39700000      21.57700000 
H      20.11200000      26.35500000      20.74800000 
H      20.25200000      26.70500000      22.44100000 
H      22.32200000      24.64300000      23.29200000 
H      20.89000000      24.90300000      24.27700000 
H      21.31800000      23.27900000      23.62400000 
N      18.38700000      21.67300000      20.40500000 
C      19.20000000      20.64700000      19.39900000 
C      18.63100000      20.92100000      17.94700000 
O      19.21000000      20.80000000      17.21300000 
C      18.59000000      19.34900000      19.94900000 
O      19.12500000      19.19600000      21.34100000 
C      18.91400000      18.25300000      19.13900000 
H      18.02600000      21.61400000      21.03800000 
H      19.96600000      20.76100000      19.44400000 
H      17.37000000      19.39300000      20.11100000 
H      18.60800000      19.63200000      22.00800000 
H      18.71400000      17.27900000      19.65100000 
H      18.53400000      18.25200000      18.21700000 
H      20.08700000      18.22100000      19.01900000 
N      17.24400000      21.30700000      17.75800000 
C      16.55300000      21.43700000      16.40700000 
C      17.46000000      22.50000000      15.47600000 
O      17.63300000      22.59300000      14.77500000 
C      15.44600000      21.75300000      16.61600000 
H      16.66400000      21.40000000      18.61900000 
H      16.95600000      20.67000000      15.88800000 
H      14.81400000      21.89300000      15.42700000 
H      14.72000000      20.85700000      16.95000000 
H      14.98300000      22.66000000      17.11600000 
N      17.84400000      23.88300000      16.46500000 
C      18.48800000      24.90100000      15.77200000 
C      19.75900000      24.39100000      15.23800000 
O      20.12700000      24.89000000      14.16400000 
C      18.76200000      25.97100000      16.96000000 
C      17.48800000      27.12900000      17.19000000 
O      16.30200000      26.58400000      16.66900000 
N      17.85800000      27.72000000      17.55900000 
H      17.46900000      23.80300000      17.49400000 
H      17.91600000      25.15400000      15.06500000 
H      19.01100000      25.62900000      17.77600000 
H      19.51500000      26.63500000      16.42600000 
H      16.97200000      28.78300000      17.93600000 
H      18.83300000      28.34100000      17.98800000 
N      20.68000000      23.84700000      15.68700000 
C      21.80200000      23.28400000      15.53900000 
C      21.81500000      22.46200000      14.02200000 
O      22.39300000      22.45300000      13.26600000 
C      23.17500000      22.83400000      16.88200000 
C      24.49300000      22.69400000      15.89900000 
C      22.74800000      23.66500000      17.66400000 
H      20.28400000      23.17300000      16.97000000 
H      22.43800000      24.16500000      14.96900000 
H      22.51000000      21.75800000      16.87000000 
H      24.84300000      22.36000000      16.62500000 
H      24.31600000      22.13800000      15.19200000 
H      24.60500000      23.57200000      15.76100000 
H      23.66800000      23.22200000      18.51400000 
H      23.12900000      24.67600000      17.60400000 
H      21.96700000      23.68100000      18.35500000 
N      20.62600000      21.02100000      14.35700000 
C      20.75500000      20.46900000      13.29300000 
C      20.33700000      20.79200000      12.16400000 
O      20.64800000      20.43800000      10.93700000 
C      19.74400000      19.17200000      13.96100000 
C      20.20000000      18.30700000      14.86700000 
C      19.15600000      17.42500000      15.59000000 
C      21.43500000      17.47900000      14.59500000 
H      20.18700000      21.29100000      15.33000000 
H      21.63100000      19.92500000      13.19000000 
H      18.77700000      19.65900000      14.16800000 
H      19.47900000      18.58100000      12.98400000 
H      20.56600000      18.89700000      15.83100000 
H      19.33600000      16.76100000      16.21300000 
H      18.21900000      18.06900000      15.80400000 
H      18.67200000      16.76800000      14.53900000 
H      21.76000000      16.75100000      15.36400000 
H      21.13000000      16.70500000      13.65800000 
H      22.24900000      17.95700000      14.20200000 
N      19.18400000      21.94000000      12.04100000 
C      18.67200000      22.28200000      10.82300000 
C      19.87000000      23.61100000      10.26900000 
O      19.49700000      23.62300000       8.98700000 
C      17.39200000      22.96400000      11.06600000 
C      17.16300000      24.10800000      11.72900000 
C      15.53900000      24.58900000      11.32500000 
N      15.45600000      25.97800000      12.14200000 
C      15.00400000      26.01800000      13.85600000 
N      14.74100000      24.76500000      14.30500000 
N      15.06500000      27.29900000      14.05700000 
H      18.85500000      22.18700000      13.06200000 
H      18.74500000      21.55400000      10.18300000 
H      16.96600000      23.02600000       9.77600000 
H      16.72600000      22.16400000      11.33900000 
H      17.28100000      24.14400000      12.68700000 
H      17.83400000      25.01300000      11.30100000 
H      15.59600000      25.05400000      10.41200000 
H      15.07700000      24.09900000      11.59300000 
H      15.72900000      26.90900000      11.77200000 
H      14.86600000      23.86100000      13.78600000 
H      14.60200000      24.94200000      15.02300000 
H      15.14800000      27.83700000      13.92600000 
H      14.99100000      26.92900000      15.19900000 
N      20.47600000      23.98800000      10.76000000 
C      21.61700000      24.78600000      10.43400000 
C      22.66300000      24.33900000       9.78700000 
O      23.23100000      24.80700000       8.51700000 
C      22.08300000      25.93900000      11.45200000 
C      22.57800000      27.26000000      10.78000000 
O      22.04200000      27.75400000       9.92600000 
O      23.76900000      27.65400000      11.42600000 
H      20.64200000      23.84400000      12.06900000 
H      20.98300000      25.62300000       9.50400000 
H      21.10800000      26.27800000      12.07900000 
H      22.75900000      25.44900000      12.12500000 
N      23.19300000      23.10900000      10.37500000 
C      24.34700000      22.60300000       9.83500000 
C      24.29700000      21.06700000       9.56100000 
O      24.98400000      20.54700000       8.56300000 
C      25.74200000      22.82500000      10.69800000 
C      26.89800000      22.36300000      10.24200000 
S      28.14900000      21.57500000      11.48000000 
C      27.49700000      19.92800000      11.48000000 
H      22.87900000      22.96600000      11.14100000 
H      24.75900000      23.02500000       8.86800000 
H      25.57800000      23.83200000      11.14700000 
H      25.34200000      22.14400000      11.82200000 
H      26.87400000      21.77900000       9.42900000 
H      27.48700000      23.36600000       9.90600000 
H      27.86500000      19.34000000      12.34900000 
H      26.11900000      20.06000000      12.01000000 
H      27.28500000      19.45200000      10.67300000 
N      23.62000000      20.27300000      10.08300000 
C      23.42100000      18.94600000      10.13300000 
C      22.60100000      18.61600000       8.74400000 
O      22.96000000      17.75300000       7.99900000 
H      22.85700000      20.82300000      11.17000000 
H      24.21500000      18.39900000      10.01100000 
H      22.70000000      18.51800000      10.79800000 
N      21.69400000      19.22600000       8.19300000 
C      20.75800000      19.51900000       7.04800000 
C      20.36800000      18.07300000       6.48600000 
O      20.38400000      17.73100000       5.77400000 
C      21.95400000      19.79300000       6.02500000 
C      22.31900000      21.45100000       6.21200000 
C      23.36800000      21.59200000       5.10400000 
C      21.40100000      22.65700000       6.09900000 
H      21.19500000      20.15900000       9.23300000 
H      20.14400000      20.02100000       7.20200000 
H      22.57000000      19.41600000       5.86500000 
H      21.20200000      19.95000000       5.00700000 
H      22.79500000      21.48600000       7.17300000 
H      23.77800000      22.85800000       5.31700000 
H      24.12600000      21.15700000       5.15900000 
H      22.92100000      21.81100000       4.11100000 
H      21.51600000      23.36500000       6.31900000 
H      20.58200000      22.43300000       5.18000000 
H      20.33200000      22.23700000       7.13800000 
N      19.74600000      17.21900000       7.50700000 
C      19.10200000      16.11600000       7.61600000 
C      17.63400000      16.03800000       7.86600000 
O      17.23400000      16.70200000       8.64400000 
C      19.77300000      15.01600000       8.31800000 
C      21.46700000      14.92500000       7.87100000 
C      22.26000000      14.00300000       9.27300000 
O      21.89100000      13.05400000       9.35400000 
N      22.99400000      14.95800000       9.53200000 
H      19.76000000      17.79300000       8.73600000 
H      19.34700000      15.80500000       6.35800000 
H      19.87900000      15.45400000       9.44400000 
H      19.31400000      14.10500000       8.38600000 
H      21.29200000      14.06500000       7.06600000 
H      21.75100000      15.59500000       7.60300000 
H      23.26400000      15.79600000       9.31900000 
H      23.52600000      14.61000000      10.28800000 
N      16.49300000      13.62600000       9.34600000 
C      15.85800000      13.28700000      10.49100000 
C      15.76100000      14.65700000      11.85600000 
O      15.19000000      14.13300000      12.86500000 
C      17.04700000      12.50200000      11.26100000 
C      18.47800000      12.98800000      11.05600000 
S      19.45800000      12.78500000      12.71000000 
C      18.52500000      13.88800000      13.74400000 
H      16.72900000      13.62200000       8.94500000 
H      15.00500000      12.80900000      10.76100000 
H      16.81800000      12.06800000      12.02000000 
H      16.98500000      11.48200000      10.43500000 
H      19.02400000      12.58300000      10.34600000 
H      18.39900000      14.04200000      10.88800000 
H      19.28900000      14.14100000      14.67000000 
H      18.42200000      15.00600000      13.23600000 
H      17.62300000      13.59400000      14.11800000 
N      16.18800000      15.72500000      11.14500000 
C      15.76700000      16.77900000      12.55100000 
C      14.05600000      16.98600000      12.79400000 
O      13.88500000      17.09000000      13.49400000 
C      16.44200000      18.17300000      11.78400000 
H      16.46000000      15.95900000      10.59300000 
H      16.16300000      16.64900000      13.22700000 
H      16.14700000      18.94400000      12.52600000 
H      17.36500000      18.03800000      11.68200000 
H      15.89200000      18.43800000      10.85700000 
N      13.11500000      14.02700000      14.86500000 
C      13.28200000      14.29300000      16.29400000 
C      12.18100000      15.07800000      16.67700000 
O      11.43600000      14.91300000      17.89500000 
C      14.61900000      14.82400000      16.44000000 
C      14.87600000      15.08300000      17.90700000 
C      14.74800000      14.08800000      18.89100000 
C      16.05200000      16.10100000      18.42300000 
H      13.74600000      14.26700000      14.19100000 
H      13.07700000      13.33500000      16.81200000 
H      15.29200000      14.20800000      16.26900000 
H      14.71400000      15.76100000      15.95200000 
H      13.83600000      15.95300000      18.41500000 
H      15.00100000      14.18700000      19.96900000 
H      13.78100000      13.46000000      18.86500000 
H      15.52700000      13.20100000      18.53900000 
H      16.18300000      16.25500000      19.20100000 
H      16.97700000      15.47800000      17.87700000 
H      16.02300000      16.96100000      17.69300000 
N      11.86100000      16.35700000      15.82400000 
C      10.78500000      17.28800000      16.29800000 
C       9.53400000      16.75700000      17.00400000 
O       8.80900000      17.02900000      17.57200000 
C      10.59400000      18.23500000      15.39100000 
C      12.12400000      19.31400000      15.39400000 
C      11.53900000      20.57200000      14.59000000 
O      11.27500000      20.15300000      12.99200000 
N      11.82100000      21.80900000      15.08100000 
H      12.27100000      16.41500000      15.26700000 
H      11.12900000      17.61400000      17.46100000 
H      10.49800000      17.97800000      14.48900000 
H       9.72900000      18.93200000      15.75000000 
H      11.81500000      19.87800000      16.45700000 
H      12.62700000      18.98300000      15.33800000 
H      11.93600000      21.75700000      15.71800000 
H      11.65000000      22.45400000      14.39400000 
H      15.54613709      12.83620287      22.16004791 
H      18.86298456      11.30622662      21.98682226 
H      18.08844899      10.51761723      17.47053566 
H      21.51388139      11.63710981      16.70734324 
H      29.60741743      19.38663908      13.65362225 
H      30.23315323      19.29151744      16.88434115 
H      31.20068174      23.79594414      15.46043801 
H      29.30212809      25.51014148      19.64452498 
H      26.91629768      28.66964798      17.36785457 
H      23.93390443      30.65966643      18.94182290 
H      16.68598155      23.30429496      25.36090011 
H      17.06964873      15.40439651       7.33679848 
H      15.91563317      14.04001688       8.79351691 
H      13.43257127      16.95418498      12.01276737 
H      13.04032523      13.14013753      14.73121418 
H       9.27946865      15.79418546      16.91343537 
