254
Properties=species:S:1:pos:R:3 pbc="F F F"
N      57.86400000      48.27300000      66.85400000 
C      57.92500000      48.32400000      65.41100000 
C      59.04200000      49.19800000      64.89600000 
O      59.47500000      50.16100000      65.55100000 
C      56.55400000      48.73900000      64.78500000 
C      56.04200000      50.12100000      65.00900000 
C      56.06800000      51.13900000      64.08400000 
C      55.25100000      50.63100000      66.11900000 
N      55.36600000      52.21600000      64.54900000 
C      54.85600000      51.93600000      65.77600000 
C      54.84400000      50.10400000      67.34200000 
C      54.04400000      52.71100000      66.63500000 
C      54.06400000      50.85900000      68.19000000 
C      53.67300000      52.16200000      67.82300000 
H      57.98100000      49.08700000      67.38400000 
H      58.10600000      47.31200000      65.07800000 
H      56.62200000      48.54600000      63.73800000 
H      55.84300000      48.03200000      65.17200000 
H      56.53800000      51.14600000      63.13100000 
H      55.20000000      53.04500000      64.02400000 
H      55.13400000      49.10900000      67.63700000 
H      53.75300000      53.69800000      66.34400000 
H      53.74000000      50.46200000      69.12200000 
H      53.05700000      52.72500000      68.49500000 
N      59.47100000      48.87000000      63.67100000 
C      60.34800000      49.64000000      62.85100000 
C      59.54100000      50.62200000      61.99600000 
O      58.36100000      50.42400000      61.73000000 
C      61.12200000      48.71900000      61.89000000 
C      61.86300000      47.59700000      62.61700000 
O      61.52500000      46.41400000      62.36100000 
O      62.77600000      47.95000000      63.43000000 
H      59.03600000      48.08200000      63.23900000 
H      61.05100000      50.18600000      63.47100000 
H      60.43900000      48.28100000      61.17600000 
H      61.85000000      49.31100000      61.34000000 
N      60.22800000      51.65500000      61.47700000 
C      59.68500000      52.51100000      60.43400000 
C      60.80500000      52.82900000      59.49100000 
O      61.98100000      52.99000000      59.92300000 
C      58.98900000      53.76800000      60.99700000 
C      59.89700000      54.54700000      61.91900000 
C      59.43500000      55.93400000      62.32300000 
O      60.19000000      56.60700000      63.05700000 
O      58.28300000      56.33400000      61.89100000 
H      61.17600000      51.81300000      61.74500000 
H      58.93900000      51.92400000      59.90700000 
H      58.69700000      54.39200000      60.15000000 
H      58.09700000      53.47700000      61.48700000 
H      60.05900000      53.99600000      62.85000000 
H      60.88300000      54.68200000      61.48900000 
N      60.51000000      52.95400000      58.20800000 
C      61.43700000      53.31800000      57.16400000 
C      61.41100000      54.81600000      56.95200000 
O      60.34800000      55.44600000      56.90300000 
C      61.05200000      52.61300000      55.83900000 
C      61.36300000      51.11700000      55.79900000 
C      60.55100000      50.41700000      54.71400000 
C      62.85500000      50.84200000      55.57600000 
H      59.53300000      52.82800000      57.93300000 
H      62.40700000      53.01800000      57.47200000 
H      59.97700000      52.77100000      55.68600000 
H      61.55700000      53.10700000      55.01100000 
H      61.07500000      50.67300000      56.77400000 
H      60.76400000      49.37100000      54.66200000 
H      59.47800000      50.54500000      54.87400000 
H      60.78400000      50.86000000      53.72400000 
H      63.06900000      49.78400000      55.65500000 
H      63.14600000      51.16600000      54.57500000 
H      63.49100000      51.36100000      56.29200000 
N      67.73900000      54.06100000      52.65000000 
C      66.65400000      53.90400000      53.60000000 
C      67.22000000      53.50300000      54.96500000 
O      68.10000000      52.62400000      55.05700000 
C      65.57500000      52.95800000      53.05900000 
C      66.02000000      51.50700000      52.78600000 
C      64.97900000      50.68200000      52.02700000 
O      63.84800000      51.16200000      51.78900000 
O      65.35300000      49.49700000      51.70500000 
H      68.17200000      53.21900000      52.31500000 
H      66.19200000      54.87100000      53.71400000 
H      64.73100000      52.94700000      53.75100000 
H      65.20900000      53.39600000      52.14200000 
H      66.91600000      51.49000000      52.18000000 
H      66.25100000      50.99900000      53.69600000 
N      66.72200000      54.14500000      56.01100000 
C      67.15600000      53.96100000      57.39200000 
C      66.00600000      53.45500000      58.24000000 
O      64.81800000      53.53800000      57.87400000 
C      67.77800000      55.24800000      57.99000000 
C      69.20000000      55.46500000      57.51000000 
C      66.88800000      56.48300000      57.77900000 
H      65.97200000      54.80600000      55.85000000 
H      67.91200000      53.18200000      57.37300000 
H      67.83000000      55.07300000      59.08500000 
H      69.61800000      56.35200000      57.94900000 
H      69.83000000      54.63000000      57.73600000 
H      69.21500000      55.61500000      56.41000000 
H      67.26200000      57.31200000      58.34900000 
H      66.89900000      56.77300000      56.72400000 
H      65.85800000      56.30000000      58.06400000 
N      66.36500000      52.91400000      59.40900000 
C      65.46100000      52.17300000      60.30700000 
C      65.50700000      52.87500000      61.66800000 
O      66.55900000      52.93800000      62.29600000 
C      65.99200000      50.72000000      60.47700000 
C      66.21500000      49.96000000      59.15000000 
C      67.29900000      48.88800000      59.32400000 
C      64.91800000      49.30500000      58.63800000 
H      67.32300000      52.86800000      59.63300000 
H      64.48000000      52.19100000      59.88600000 
H      66.94900000      50.80000000      61.00200000 
H      65.31900000      50.18500000      61.12200000 
H      66.55900000      50.65700000      58.40200000 
H      67.49400000      48.38000000      58.40600000 
H      68.25400000      49.36600000      59.64300000 
H      67.03800000      48.16400000      60.08500000 
H      65.08300000      48.85900000      57.66400000 
H      64.57900000      48.51900000      59.32600000 
H      64.11400000      50.04000000      58.54100000 
N      64.34400000      53.38300000      62.14300000 
C      64.26300000      54.02200000      63.47200000 
C      63.23400000      53.29800000      64.31400000 
O      62.06700000      53.72300000      64.39900000 
C      64.00000000      55.52000000      63.40800000 
O      62.90900000      55.83600000      62.49000000 
C      65.22100000      56.29700000      62.93100000 
H      63.53800000      53.39400000      61.57400000 
H      65.24400000      53.89000000      63.91800000 
H      63.73900000      55.84500000      64.40900000 
H      62.05800000      55.92300000      62.92800000 
H      64.97600000      57.34900000      62.87800000 
H      66.04400000      56.16400000      63.62100000 
H      65.52400000      55.96900000      61.95400000 
N      63.59500000      52.19400000      64.99800000 
C      62.61700000      51.47500000      65.80600000 
C      62.11100000      52.33500000      66.97900000 
O      62.88500000      53.09000000      67.58100000 
C      63.37800000      50.21800000      66.24800000 
C      64.83200000      50.63900000      66.22700000 
C      64.93800000      51.58400000      65.06100000 
H      61.76000000      51.22500000      65.19100000 
H      63.04100000      49.86500000      67.23000000 
H      63.18600000      49.43200000      65.54000000 
H      65.11200000      51.14800000      67.15900000 
H      65.51600000      49.77600000      66.11800000 
H      65.70600000      52.33500000      65.19700000 
H      65.15100000      51.06400000      64.12300000 
N      60.83700000      52.19900000      67.27400000 
C      60.15000000      53.02800000      68.25200000 
C      59.08100000      52.20700000      68.93600000 
O      58.02600000      51.92400000      68.31900000 
C      59.54000000      54.27600000      67.56800000 
C      58.97900000      55.30900000      68.54800000 
C      59.80600000      56.63600000      68.62100000 
C      59.18300000      57.70500000      67.76900000 
N      60.02600000      58.97100000      67.75600000 
H      60.25500000      51.58300000      66.70100000 
H      60.89700000      53.35100000      68.97800000 
H      60.31900000      54.72100000      66.95200000 
H      58.77900000      53.93300000      66.89600000 
H      57.96500000      55.55900000      68.29300000 
H      58.93400000      54.89900000      69.54700000 
H      59.86700000      56.98600000      69.64300000 
H      60.82200000      56.44200000      68.29600000 
H      59.07200000      57.41500000      66.72700000 
H      58.21400000      58.00700000      68.14100000 
H      59.57400000      59.70900000      67.24700000 
H      60.19100000      59.30600000      68.69200000 
H      60.92300000      58.80300000      67.32000000 
N      50.70000000      55.25800000      61.26900000 
C      51.29800000      56.57700000      61.23000000 
C      52.15100000      56.73200000      59.97400000 
O      53.26900000      57.28900000      60.01200000 
C      52.06700000      56.89200000      62.51500000 
C      53.08000000      55.81400000      62.92300000 
C      54.02400000      56.25100000      64.06800000 
C      55.49800000      56.13600000      63.70900000 
N      55.92200000      57.11000000      62.67000000 
H      51.28400000      54.47500000      61.14200000 
H      50.49700000      57.30200000      61.13500000 
H      52.57400000      57.83300000      62.39600000 
H      51.34900000      57.02100000      63.31200000 
H      52.54700000      54.92600000      63.24800000 
H      53.65700000      55.51100000      62.07000000 
H      53.83500000      57.29100000      64.34100000 
H      53.85800000      55.67000000      64.95300000 
H      56.14400000      56.27800000      64.54900000 
H      55.71900000      55.14200000      63.28000000 
H      56.86800000      56.91100000      62.33500000 
H      55.29100000      57.11600000      61.85900000 
H      55.90300000      58.06400000      63.04200000 
N      55.43800000      52.40000000      57.44200000 
C      55.82100000      51.51000000      58.53600000 
C      56.10300000      50.13300000      57.93900000 
O      55.30800000      49.67600000      57.11300000 
C      54.63000000      51.40600000      59.54900000 
C      54.79200000      50.21700000      60.52300000 
C      54.46900000      52.71300000      60.33200000 
H      54.74600000      51.99700000      56.80900000 
H      56.68500000      51.91000000      59.01600000 
H      53.73400000      51.24400000      58.95100000 
H      53.99500000      50.24100000      61.24800000 
H      54.71900000      49.27100000      59.99800000 
H      55.74000000      50.25100000      61.03100000 
H      53.62600000      52.64800000      60.99000000 
H      55.34800000      52.92000000      60.92500000 
H      54.31000000      53.55500000      59.67400000 
N      57.16900000      49.47000000      58.36200000 
C      57.49300000      48.10700000      57.89900000 
C      57.76000000      47.23200000      59.11900000 
O      58.73200000      47.50500000      59.85400000 
C      58.71100000      48.11300000      56.96400000 
C      59.16700000      46.70800000      56.53500000 
C      58.98200000      46.38400000      55.03300000 
N      60.27500000      46.07700000      54.40000000 
C      60.62200000      44.94700000      53.75000000 
N      61.87900000      44.81600000      53.36200000 
N      59.76200000      43.97600000      53.51400000 
H      57.78000000      49.87600000      59.02400000 
H      56.62400000      47.74700000      57.35800000 
H      58.47000000      48.71900000      56.11800000 
H      59.52400000      48.62200000      57.48600000 
H      60.22200000      46.58800000      56.76700000 
H      58.66400000      45.94500000      57.09600000 
H      58.30800000      45.56000000      54.91200000 
H      58.55400000      47.22500000      54.50000000 
H      60.96800000      46.76400000      54.48900000 
H      62.57800000      45.50500000      53.56400000 
H      62.18600000      44.02000000      52.85100000 
H      58.80600000      44.03100000      53.73100000 
H      60.07000000      43.13400000      53.06000000 
N      56.94800000      46.18000000      59.27700000 
C      57.00200000      45.19400000      60.34600000 
C      56.35300000      45.72500000      61.61200000 
O      56.32200000      46.94100000      61.88000000 
C      58.41200000      44.67700000      60.71500000 
C      59.12000000      44.03900000      59.55800000 
O      58.53000000      43.50200000      58.62200000 
N      60.47100000      44.06800000      59.61500000 
H      56.20000000      46.07600000      58.64100000 
H      56.43500000      44.36100000      59.97700000 
H      58.99700000      45.45000000      61.15800000 
H      58.27800000      43.90000000      61.45700000 
H      61.00600000      43.63100000      58.92700000 
H      60.95900000      44.54100000      60.37500000 
H      57.05780220      47.96552193      67.10993425 
H      62.26768835      55.32113361      56.84747675 
H      67.43739304      54.48788495      51.91733194 
H      59.21674329      51.89243218      69.87547903 
H      50.31137524      55.12790450      62.07027770 
H      51.81809447      56.38436117      59.09746070 
H      55.08445973      53.15579445      57.77931888 
H      55.93256731      45.09176112      62.26180372 
