 464 
 
N               145.0088823131       71.0157992829      116.8687108801
C               146.3226099919       70.5942486902      116.4181725090
C               146.2324893982       70.0076013533      115.0079384043
O               147.0140967084       70.3449215396      114.1209568835
C               146.8816689491       69.5810642023      117.4043601113
H               144.6769546574       70.6498667361      117.7565601146
H               146.9811707345       71.4712778482      116.3527764887
H               147.8808624657       69.2763471010      117.1094738103
H               146.9317153502       70.0395542236      118.3877371311
H               146.2290085434       68.7124686043      117.4467219879
N               145.9622501810       72.6016507728      112.4791876633
C               147.2625775697       73.1697961252      112.1786280999
C               148.0155010225       72.2718669928      111.2019825198
O               148.6304390495       72.7178666089      110.2326614730
C               148.0924265375       73.3288580920      113.4541861348
C               147.7117994314       74.5961112767      114.2132560323
C               148.1332298867       75.8316346092      113.3546417407
O               149.3402174041       76.1445684505      113.3912965702
O               147.2387877492       76.3797000755      112.6791475555
H               145.7245413527       72.4199993181      113.4500530648
H               147.1371916671       74.1539321165      111.7055895670
H               147.9547931281       72.4376701664      114.0705871716
H               149.1480525415       73.4089870711      113.1820518062
H               146.6380724614       74.6329405760      114.4000353762
H               148.2556985451       74.6373168410      115.1574835550
N               148.0025744227       70.9750693575      111.4988045201
C               148.6545711590       70.0067770577      110.6364753175
C               148.0537709022       70.1104634024      109.2287192986
O               148.7585608102       70.1891739941      108.2319947939
C               148.5390790821       68.5974646918      111.2376656994
C               149.4458640705       68.5269258592      112.4737829984
C               148.8965695736       67.5399726564      110.1965190462
C               149.2728275789       67.2611820804      113.3015539784
H               147.5356694644       70.6502125787      112.3416403278
H               149.7172562776       70.2717031752      110.5376970392
H               147.4970257850       68.4558489373      111.5400700794
H               150.4866092587       68.6059866870      112.1530555715
H               149.2289762393       69.3845521497      113.1135266650
H               148.8078664029       66.5467283676      110.6242446152
H               148.2255347238       67.6056391420      109.3445028116
H               149.9129586467       67.6821687828      109.8406885219
H               149.9711113112       67.2779236494      114.1338025974
H               148.2634877523       67.2055189400      113.7016183872
H               149.4692313713       66.3673141572      112.7175010478
N               149.3057522269       72.9026251561      107.2912465031
C               150.6230979657       72.6265027970      106.7474490876
C               150.4686379885       71.8269706573      105.4419891659
O               151.1117423318       72.1216511815      104.4391468501
C               151.4857853236       71.8393465419      107.7408230262
C               152.1505571881       72.7484598606      108.7649825724
O               153.1353194839       73.4173148167      108.4867417985
N               151.6086240543       72.7290935379      109.9897042231
H               149.1306254889       72.7506158260      108.2768010362
H               151.1218797726       73.5702845702      106.4855638486
H               150.8700264127       71.0842728604      108.2272968809
H               152.2935347603       71.3497938009      107.1934275655
H               152.0082127058       73.3176732206      110.7054749909
H               150.6682892689       72.3953174399      110.1475853477
N               149.6447673283       70.7868645080      105.4964137006
C               149.4713599598       69.9100185237      104.3558263627
C               148.8117918904       70.6110647201      103.1619882895
O               149.1065707468       70.2988106370      102.0100532516
C               148.6758353250       68.6721309636      104.7724490381
C               149.4192773288       67.7975195575      105.7930353638
C               148.4728875657       66.7426821658      106.3634766129
C               150.6274953602       67.1135039390      105.1609607767
H               149.1261099650       70.5789306994      106.3453098708
H               150.4650179516       69.6148795621      103.9967183826
H               147.7323770169       69.0156362374      105.1994381030
H               148.4584061804       68.0845153784      103.8797029409
H               149.7536827632       68.4319157500      106.6183565360
H               148.9639241053       66.1843949824      107.1558356102
H               147.5821034601       67.2099316279      106.7750335244
H               148.1653504994       66.0420171888      105.5907303773
H               151.1058680888       66.4592707909      105.8838771721
H               150.3126582037       66.5185706861      104.3077628190
H               151.3648764674       67.8367185158      104.8255278187
N               159.9852650828       70.9336197078      103.6304557324
C               160.6913135319       70.3456077605      104.7453248301
C               160.2819122936       71.0392985968      106.0403947070
O               159.9570531947       70.4050115738      107.0373339611
C               162.2154866584       70.4198953894      104.5110027994
O               162.5608290672       69.8072106492      103.2855637918
C               162.9602485858       69.6979735075      105.6266000675
H               160.5222399420       71.3400442383      102.8773398433
H               160.3992721524       69.2901270701      104.8423893422
H               162.4991818882       71.4828603670      104.4893932258
H               162.2280735671       70.3638224441      102.5619703700
H               164.0279432303       69.8627855356      105.5213643932
H               162.6235769145       70.0535506907      106.5951523201
H               162.7638888728       68.6315865817      105.5604411741
N               160.2802558698       72.3743779704      106.0068193425
C               159.8156455230       73.1163535140      107.1626870994
C               158.4521795169       72.5663631980      107.6090938739
O               158.2257945162       72.2967901355      108.7844357940
C               159.7074031179       74.6135238270      106.8636963984
C               159.3266530857       75.3794197196      108.1380115562
C               158.9160574564       76.8151311785      107.8585445107
O               157.7733070011       77.2121830067      108.0316456577
N               159.9058781900       77.6214663642      107.4591505195
H               160.5908782302       72.8819491423      105.1852514054
H               160.5095710235       72.9528126162      107.9995966087
H               160.6668491697       74.9554533799      106.4722766549
H               158.9583661988       74.7686280133      106.0847944268
H               158.4878796480       74.8796220031      108.6245064689
H               160.1656458786       75.3800549759      108.8353306467
H               160.8181813157       77.2558827006      107.2500064378
H               159.6914638565       78.5635247316      107.1724015513
N               157.5410382705       72.4814866685      106.6414013080
C               156.1774101289       72.0681882511      106.9156448490
C               156.1813025577       70.7401999017      107.6830796493
O               155.4912955592       70.5670266959      108.6830748588
C               155.3922402345       71.9016459416      105.6107768734
C               155.1974853683       73.2116167784      104.8446154786
C               154.1527220350       74.1380917871      105.4906795896
N               154.5895820884       75.5186539929      105.4725955274
C               155.0618645230       76.2275630411      106.4999730661
N               154.9083754027       75.8509140740      107.7677854812
N               155.6100243921       77.4063947278      106.2205644616
H               157.7790334012       72.7313510084      105.6871035273
H               155.6976602759       72.8064025972      107.5719826454
H               155.9351989601       71.1947048214      104.9839732457
H               154.4175429406       71.4758061492      105.8486040136
H               156.1485953352       73.7407401897      104.7767127177
H               154.8855741810       72.9713705879      103.8284126702
H               153.2122132923       74.0743306992      104.9401493848
H               153.9539240444       73.8302449084      106.5151545127
H               154.9006844843       75.8742437126      104.5688110051
H               154.3753562329       75.0414566176      108.0478013408
H               155.3477193094       76.4060364459      108.4827909685
H               155.9060186539       77.5284666201      105.2297417767
H               156.1692254029       77.8433469305      106.9385089716
N               156.9354084101       69.7918067384      107.1263076536
C               156.9974617404       68.4493837849      107.6662802159
C               157.4754200384       68.4957166024      109.1192940052
O               156.8812633212       67.9614603270      110.0476080584
C               157.9436851442       67.5574720870      106.8643735070
C               157.5106214542       67.3051084665      105.4148136996
C               158.6051622592       66.5157426800      104.6985166422
C               156.1875918636       66.5474191708      105.3485379308
H               157.4791722041       70.0200232313      106.3003847257
H               155.9916737031       68.0112290790      107.6881172155
H               158.9380901714       68.0084625951      106.8726974986
H               158.0089435904       66.6002015701      107.3881538062
H               157.3923758452       68.2674425070      104.9073193494
H               158.3445363759       66.3498070313      103.6568523533
H               159.5585812188       67.0370630577      104.7430188854
H               158.7412534458       65.5387841895      105.1595104582
H               156.0126560363       66.1842852299      104.3397270513
H               156.2145494476       65.6861382424      106.0147812131
H               155.3557428378       67.1804433180      105.6441362549
N               158.5885814441       69.2156186160      109.2897263933
C               159.2155546453       69.3128779560      110.5879646086
C               158.1897285008       69.8170336728      111.6047169217
O               158.0993676760       69.3341831520      112.7317399939
C               160.4035669979       70.2705756027      110.5260370405
C               161.5645285536       69.6834994158      109.7248651951
O               161.4893492824       68.6516357222      109.0817176507
N               162.6861143675       70.4236715923      109.7753957983
H               159.1164792407       69.5510974400      108.4914120738
H               159.5412649561       68.3152415948      110.9199174442
H               160.0730153867       71.1990611060      110.0549299519
H               160.7421458246       70.4859667204      111.5401085171
H               163.5174014708       70.0632472956      109.3334031970
H               162.7650170421       71.2268370390      110.3757555724
N               157.4603791308       70.8536003323      111.1957218364
C               156.4807441342       71.4606181613      112.0712691772
C               155.4013267822       70.4547443890      112.4503800190
O               155.0478631426       70.3041910166      113.6185901966
C               155.8736070406       72.7041077862      111.4254475661
C               154.7876311197       73.3251171011      112.2978223401
C               155.2211122680       73.7013168889      113.7362815738
O               156.4193087450       73.5904117921      114.0659708531
O               154.3108993561       74.1073107557      114.4892327470
H               157.5804466452       71.2370181714      110.2635224017
H               156.9748947389       71.7526003021      113.0070788174
H               156.6750936374       73.4282432096      111.2758181240
H               155.4491230067       72.4271368354      110.4578880633
H               154.4102646671       74.2395692684      111.8351445386
H               153.9409103694       72.6414582452      112.4050352770
N               154.8574120949       69.7698218629      111.4444236064
C               153.8848806248       68.7318613444      111.7196015898
C               154.3874148881       67.8704308902      112.8771244154
O               153.6679967624       67.5832595898      113.8314616542
C               153.6058327787       67.8778570546      110.4722922725
C               152.8307851132       68.7143238213      109.4459488621
C               152.8554894886       66.6076571174      110.8691525817
C               152.6260530331       67.9975021886      108.1165647481
H               155.1882168988       69.8883067667      110.4931493902
H               152.9499019870       69.1977857234      112.0686641953
H               154.5734411989       67.5900907247      110.0473012596
H               151.8615651245       68.9874129019      109.8688331948
H               153.3849923867       69.6365930064      109.2659654241
H               152.6022162402       66.0233568981      109.9903736046
H               153.4793225092       65.9861583154      111.5103802941
H               151.9460501053       66.8513523192      111.4131248192
H               152.2159553756       68.6876495145      107.3849474384
H               153.5748227348       67.6159133254      107.7468137410
H               151.9404591507       67.1618500636      108.2193617515
N               155.6442296648       67.4446177828      112.7622574744
C               156.2151580860       66.5296115850      113.7272976209
C               156.3243587813       67.1674064453      115.1031650582
O               156.0523429419       66.5450582535      116.1299703630
C               157.5693638389       66.0534961458      113.2236846971
C               157.3232862142       65.2023652526      111.9464958784
O               156.3297426620       64.4475326140      111.9871929055
O               158.1061266148       65.3286312151      110.9889904768
H               156.1742515077       67.6423819812      111.9227382222
H               155.5529504311       65.6552888612      113.8286819547
H               158.2107553120       66.9018788707      112.9866984196
H               158.0492949306       65.4251817689      113.9754092469
N               156.7576666571       68.4220245871      115.1231640713
C               156.8483681783       69.1452850921      116.3747082691
C               155.4902846783       69.0739105707      117.0875802495
O               155.3833998574       68.7082696901      118.2516394961
C               157.3005834716       70.5797587677      116.1145430491
C               157.7418847066       71.2602539456      117.4071334642
C               158.0548106572       72.7453736436      117.1964790108
N               156.8870973707       73.5023576089      116.8070301207
C               155.9478886956       73.9399852599      117.6321107756
N               156.0555644828       73.8287264899      118.9623808419
N               154.9346544781       74.6362976142      117.1166422127
H               157.0227471581       68.8875506707      114.2620364353
H               157.5714631744       68.6312530051      117.0245254706
H               158.1302752953       70.5449320029      115.4051493103
H               156.4870423712       71.1302654597      115.6391722083
H               156.9505540060       71.1530647312      118.1487706722
H               158.6343308731       70.7596285277      117.7824094256
H               158.4709773329       73.1715840840      118.1114519982
H               158.7818738865       72.8540698135      116.3912359151
H               156.7014197500       73.5836194385      115.7954041340
H               156.6240292633       73.1148127088      119.4043000752
H               155.2857634790       74.1644936812      119.5165459873
H               154.7348155053       74.5633544714      116.1070634168
H               154.1703286448       74.9138963306      117.7086759400
N               154.4517405853       69.4688791218      116.3491233794
C               153.0974328576       69.4370374343      116.8660922510
C               152.7794478522       68.0424844686      117.4048810015
O               152.3201997757       67.8739405911      118.5352511375
C               152.0899530678       69.8470233334      115.7800606489
C               150.6582469314       69.6064089651      116.2544838526
C               152.2778510316       71.3169580977      115.4158290189
H               154.5827218025       69.6928309609      115.3707680418
H               153.0255269156       70.1329066263      117.7143414432
H               152.2890875529       69.2295608495      114.8977492445
H               149.9600329052       69.9449933078      115.4934079474
H               150.4821279563       68.5486682434      116.4347160880
H               150.4651182753       70.1545503822      117.1734390386
H               151.5653321233       71.6077077582      114.6476841080
H               152.1122699779       71.9505831473      116.2825982880
H               153.2749044679       71.5121407291      115.0297757492
N               153.0140699204       67.0466285871      116.5590218605
C               152.7183629164       65.6682523546      116.8774424926
C               153.1699866799       65.2996722197      118.2930111460
O               152.4424324613       64.7242523077      119.0846091953
C               153.4422134277       64.7487721629      115.8772972519
O               153.2379194407       63.3900976313      116.1554888917
H               153.3572867441       67.2424157118      115.6235707375
H               151.6360755602       65.4870217514      116.8150250940
H               153.1002071751       64.9979387509      114.8654207570
H               154.5187158332       64.9300773734      115.9379543801
H               152.3653721569       63.1532470176      115.8017664064
N               154.4472489834       65.6111698992      118.5554373746
C               155.0914013971       65.1178717190      119.7471238389
C               154.8675676783       65.9585281910      121.0027163520
O               155.0176371866       65.4712833297      122.1122850536
H               155.0063490580       66.0582107685      117.8416266276
H               154.7100268128       64.1141362617      119.9613756110
H               156.1663238876       65.0534121907      119.5690585472
N               154.5437831218       67.2407071027      120.8059391029
C               154.4863009466       68.1703916448      121.9106765142
C               153.0705441554       68.4843999545      122.4032356100
O               152.8787963133       68.8367534572      123.5585889618
C               155.1975739625       69.4758643033      121.5383108073
C               156.6805181543       69.2267755461      121.2721134418
C               157.4121491543       70.4830398720      120.8478477192
O               156.8502934377       71.5109937304      120.4984645788
N               158.7500933788       70.3805143120      120.8743928670
H               154.4985962421       67.6115400266      119.8651256023
H               155.0059397687       67.6934067802      122.7517354317
H               154.7421275678       69.8874747074      120.6364400246
H               155.0759205354       70.1959093056      122.3475114004
H               157.1608464748       68.8028940077      122.1541635380
H               156.7711581744       68.5151352062      120.4472823202
H               159.2097474568       69.5188500753      121.1127250241
H               159.3128446831       71.1615009603      120.5766389981
N               152.0865163514       68.4085798031      121.5014965235
C               150.7365153328       68.7783237581      121.8867721939
C               150.2532223118       67.8396878707      122.9939736844
O               150.3563219721       66.6260335683      122.8911558079
C               149.7843586068       68.6896835973      120.6733649971
O               150.2707100187       69.4569021367      119.6012476984
C               148.4044895296       69.2198711269      121.0501029912
H               152.2418760810       68.0173915162      120.5818419497
H               150.7611346430       69.8115929374      122.2536738004
H               149.7100531274       67.6302126533      120.3844170691
H               151.0200238860       68.9880360177      119.1912087459
H               147.7250611204       69.0747867044      120.2163759362
H               148.0118973871       68.7010981875      121.9184685913
H               148.4683857955       70.2846669738      121.2575260345
N               149.7093380227       68.4309756670      124.0668418730
C               149.2494864021       67.6603888075      125.1992259111
C               147.9616170585       68.2289749026      125.7916506559
O               147.6628074732       69.4103627998      125.7071939622
C               150.3312807226       67.5702068974      126.2962489608
C               150.8338344744       68.9245995453      126.7915496668
C               149.8091393340       69.6801361559      127.6145965257
O               149.0210027725       69.1159195013      128.3700605572
N               149.8801260817       71.0107075007      127.5343152641
H               149.5512216687       69.4267742499      124.0975592682
H               149.0548239678       66.6452000820      124.8423037325
H               149.9195017105       66.9911930425      127.1228141381
H               151.1744296770       67.0286829854      125.8697844698
H               151.6907862639       68.7594757709      127.4496666436
H               151.1779057605       69.5193422922      125.9465032353
H               150.4913168824       71.4707713845      126.8815754998
H               149.2278548538       71.5715361716      128.0586151446
N               150.1897954901       63.1728356538      125.4257104866
C               150.6347590882       63.5533741084      124.0926835895
C               149.6621872741       62.9473647243      123.0655802561
O               149.8432562838       61.8665974212      122.5166817383
C               152.0721846494       63.0839077254      123.8782421561
C               153.0478884015       63.6270321276      124.9245369991
C               153.2097656720       65.1420459038      124.8150583178
C               154.2580268361       65.7132521525      125.7604954757
N               154.0466253791       65.2545797367      127.1648401717
H               150.6084655676       62.3333051680      125.8004101995
H               150.5694260531       64.6415367607      124.0000898316
H               152.0844504057       61.9930208048      123.8948716580
H               152.3813149055       63.4093672348      122.8849406161
H               152.6765515803       63.3613567903      125.9141717418
H               154.0109183137       63.1466629460      124.7538559227
H               153.5116013573       65.3952721687      123.7989940565
H               152.2506604824       65.6217465388      124.9999018514
H               155.2517585833       65.4052434973      125.4358277449
H               154.1976310603       66.8012473285      125.7243106727
H               154.5711574143       65.8453537286      127.8208481244
H               153.0297450306       65.2491114745      127.4311215778
H               154.3729492395       64.2850911788      127.2633444526
N               148.7069346708       63.2128823975      120.1047100398
C               149.0157688844       62.8124902630      118.7507871164
C               150.2154579446       61.8727256371      118.6468393125
O               150.6729014467       61.5675049713      117.5490315669
C               149.2815783982       64.0305371977      117.8619039759
C               148.0555269129       64.9074101448      117.6003155113
C               148.5016831015       66.1933655107      116.9090459858
C               147.0182859618       64.1868819679      116.7462504559
H               149.3348948122       63.8688333628      120.5469166770
H               148.1571100060       62.2411713016      118.3764591471
H               150.0667907553       64.6196426197      118.3445377703
H               149.6696274277       63.6620951587      116.9106118055
H               147.5953182227       65.1654883425      118.5598720063
H               147.6441215114       66.8155303080      116.6707018402
H               149.1720195074       66.7623605585      117.5504614024
H               149.0178611804       65.9539047329      115.9824641396
H               146.1612917584       64.8324491086      116.5757779221
H               147.4462001722       63.9169918918      115.7846687808
H               146.6714136007       63.2777119520      117.2299972101
N               150.7210375596       61.4087334589      119.7933182243
C               151.9236792385       60.6071263383      119.8268760027
C               151.6651155308       59.1085685828      119.7153348508
O               152.4891712501       58.3718122091      119.1892633898
C               152.6928991261       60.8666089868      121.1183618174
H               150.2922187880       61.6382945403      120.6860817299
H               152.5298074334       60.8852087886      118.9556396801
H               153.5698437645       60.2280012046      121.1615871769
H               153.0012866968       61.9070627375      121.1536764197
H               152.0459116848       60.6539266794      121.9646940958
N               148.5268809506       58.3290798913      116.3993748412
C               149.8345307307       58.8826082834      116.0935372605
C               149.8090806327       59.4787729134      114.6766570782
O               149.7441240918       58.7624492946      113.6801624689
C               150.9307092367       57.8223615762      116.1694484248
C               152.2952813136       58.4899051434      115.9780524206
C               153.4544618558       57.5060742422      115.9776642905
O               154.1979688752       57.3778405324      115.0092105303
N               153.6058888004       56.8051374979      117.1023091198
H               148.3855308789       57.3323116963      116.2783231726
H               150.0312017874       59.6898948759      116.8059966135
H               150.8798581562       57.3220762826      117.1355201731
H               150.7547480096       57.0795807949      115.3885234305
H               152.3012642070       59.0218518758      115.0260647737
H               152.4498834847       59.2065885801      116.7860344029
H               153.1393521347       57.1096051554      117.9465368986
H               154.3964632492       56.1846331164      117.1794325739
N               149.8675514915       60.8078163335      114.6295375817
C               149.8777274268       61.5624472251      113.3912454589
C               151.1862523086       62.3492993599      113.3352818869
O               151.4095272622       63.2671212241      114.1145800875
C               148.6855275026       62.5301009906      113.2986205205
C               147.3525550066       61.7853223364      113.4404979651
C               148.7727628197       63.3196444614      111.9938643875
C               147.1298625018       60.6757806738      112.4168593598
H               149.9209226475       61.3300617551      115.4969099872
H               149.8380942287       60.8534723944      112.5638891685
H               148.7728069089       63.2353863468      114.1330548576
H               147.2953747345       61.3615434132      114.4461386842
H               146.5493087552       62.5175546701      113.3450455204
H               147.8992613323       63.9577653185      111.8877344029
H               149.6619726310       63.9460441771      111.9892154961
H               148.8290617402       62.6506860808      111.1399002638
H               146.1195689829       60.2900338249      112.5126050499
H               147.2530607896       61.0411213058      111.4014434507
H               147.8175984842       59.8487300515      112.5689130656
N               152.0534511353       61.9531914016      112.3996157870
C               153.2978080053       62.6447040657      112.1454416056
C               153.7134096559       62.3412973351      110.7092597053
O               153.0673890670       61.5735165372      110.0008911482
C               154.3837761971       62.2580461839      113.1635429523
C               154.6601125958       60.7728001683      113.1013730723
O               154.9222338044       60.2012228187      112.0420281103
N               154.5891568663       60.1318896058      114.2646143262
H               151.8438945344       61.1897800450      111.7605186227
H               153.1286417354       63.7257139547      112.2308707507
H               155.2931489277       62.8145249859      112.9293928929
H               154.0498006128       62.5468829843      114.1599433956
H               154.6676881272       59.1167791815      114.3250561286
H               154.4212462216       60.6529022894      115.1099571495
N               154.7879295254       62.9978345798      110.2747676260
C               155.1847740133       62.8666204390      108.8963838462
C               155.2316976481       61.4064967530      108.4497448763
O               154.8949680830       61.0868434780      107.3141229448
C               156.5788102451       63.4730263449      108.6480473676
O               156.5891195698       64.8675154675      108.7416760394
H               155.3524206339       63.6122629511      110.8827314417
H               154.4655717730       63.3889066532      108.2484939789
H               157.2934124242       63.0209524976      109.3441141607
H               156.8636012224       63.1980502992      107.6250100684
H               157.0736472683       65.1265631687      109.5577777422
N               151.7834330299       59.4906956828      108.2674161812
C               151.0871194298       60.0041854531      107.1064274365
C               151.6869903499       59.4343195257      105.8173012319
O               150.9888690776       59.1023307640      104.8708862508
C               151.1621107386       61.5297342227      107.0784912243
C               150.3883349761       62.2026757066      108.2204941192
C               150.7367265293       63.6903066229      108.2573594019
C               148.8814754252       62.0180615061      108.0765007718
H               152.2907058284       60.1399234502      108.8535853531
H               150.0450597992       59.6607614271      107.1378219319
H               152.2174225196       61.8114820868      107.1440471823
H               150.7741309719       61.8727742277      106.1182497630
H               150.7139941408       61.7479379382      109.1614728434
H               150.1891869654       64.1862313209      109.0545625035
H               151.8023130445       63.8249707649      108.4374543894
H               150.4806611685       64.1579503267      107.3095974199
H               148.3656245425       62.5004361311      108.9017456162
H               148.5287856288       62.4598017936      107.1487618124
H               148.6111394537       60.9668878304      108.0735728407
H               144.9959656161       71.9109276868      116.9613299902
H               145.5261300554       69.3338508532      114.7908744911
H               145.3169972780       73.1559218898      112.1851940917
H               147.0611167042       70.1149566785      109.1078166371
H               149.1031665197       73.7699616966      107.1620708218
H               148.1343347659       71.3302547110      103.3163178116
H               159.4742669248       70.3074417015      103.2344986805
H               147.3237554180       67.6269182679      126.2719217628
H               150.3818299300       63.8330669453      126.0064147277
H               148.8295458211       63.4406545166      122.8138395332
H               147.8971958542       63.6052143248      120.1246777046
H               150.8163893824       58.7195909409      120.0736089346
H               148.3282966520       58.4869563133      117.2628789303
H               155.5394443069       60.6987500551      109.0856588686
H               151.1939474940       59.0953572442      108.8207825355
H               152.6773360712       59.3246805895      105.7324799143
