260
Properties=species:S:1:pos:R:3 pbc="F F F"
N      27.72600000      49.24300000      19.04400000 
C      27.77500000      49.89200000      17.75500000 
C      28.19400000      51.53500000      17.76700000 
O      28.07300000      52.11600000      18.89500000 
C      26.65600000      49.93800000      16.91400000 
C      25.76900000      48.58800000      16.89900000 
C      26.66100000      47.46400000      15.99600000 
N      26.48200000      47.80000000      14.63300000 
C      26.76000000      47.23800000      13.69400000 
N      27.22400000      45.97600000      14.28500000 
N      26.63500000      47.58400000      12.44100000 
H      26.76000000      50.05100000      19.66000000 
H      28.55000000      49.43400000      17.31500000 
H      25.93700000      50.78000000      17.20100000 
H      26.70800000      50.31700000      15.86600000 
H      25.66400000      48.35900000      17.97500000 
H      24.78600000      48.72800000      16.54600000 
H      27.44300000      47.39800000      16.40600000 
H      26.02100000      46.51600000      16.26800000 
H      26.07300000      48.76900000      14.43200000 
H      27.41000000      45.55800000      14.78900000 
H      27.66600000      45.07500000      13.21800000 
H      26.41500000      48.09100000      12.24800000 
H      26.99300000      46.77200000      11.67600000 
N      28.66200000      51.68500000      16.74900000 
C      29.07700000      53.60600000      16.62500000 
C      28.12300000      54.19000000      15.34300000 
O      28.76800000      54.91800000      14.94500000 
C      30.40400000      53.58500000      16.82100000 
C      30.82000000      53.85400000      17.80100000 
O      32.12300000      52.59800000      18.39100000 
N      30.71800000      54.74700000      18.77900000 
H      28.87100000      51.56100000      16.01400000 
H      28.56500000      53.91100000      17.49200000 
H      30.90300000      53.07400000      15.97300000 
H      30.61400000      54.88700000      16.03900000 
H      31.13100000      54.73600000      19.61500000 
H      30.24100000      55.39700000      18.54900000 
N      27.26000000      53.60200000      15.24300000 
C      26.48900000      54.11800000      13.89300000 
C      26.27900000      55.30500000      14.02400000 
O      27.16400000      56.28500000      12.30200000 
C      24.85900000      54.00200000      14.24700000 
C      24.26100000      54.23300000      12.98100000 
C      24.28700000      53.75000000      11.64100000 
N      23.53200000      54.56700000      10.59700000 
C      23.34800000      54.10600000       9.22500000 
N      23.70300000      53.43600000       8.73200000 
N      22.58300000      55.17700000       8.76200000 
H      26.68500000      52.88000000      15.57900000 
H      26.84000000      53.72000000      13.10800000 
H      24.79300000      52.66100000      13.94300000 
H      24.65600000      54.04800000      14.90200000 
H      23.00300000      54.38100000      13.25400000 
H      24.31100000      55.64300000      12.94700000 
H      25.40300000      53.89700000      11.31700000 
H      24.03000000      52.83800000      11.61300000 
H      23.05800000      55.48500000      10.95700000 
H      24.65700000      52.37100000       9.63500000 
H      23.87000000      52.81600000       8.08600000 
H      22.26800000      55.63700000       8.81500000 
H      22.52200000      54.69600000       7.53700000 
N      26.31000000      56.62900000      14.55000000 
C      26.04200000      57.64600000      14.66500000 
C      27.41800000      58.28600000      14.11800000 
O      27.46300000      59.35500000      13.02700000 
C      25.42400000      58.51500000      15.80800000 
C      24.16800000      57.91300000      16.08300000 
C      25.42700000      59.95200000      15.63200000 
C      23.00200000      58.10900000      14.92100000 
H      25.80300000      55.93600000      15.80800000 
H      25.33900000      58.01600000      13.59500000 
H      26.22700000      58.29900000      16.58000000 
H      24.24900000      56.92800000      16.49800000 
H      23.73700000      58.61700000      17.01700000 
H      25.03000000      60.46700000      16.31100000 
H      26.45200000      60.45600000      15.43200000 
H      24.93900000      60.29300000      14.65900000 
H      22.14300000      57.69500000      15.38400000 
H      23.09100000      58.98800000      14.55700000 
H      23.43800000      57.25500000      14.15600000 
N      28.22800000      57.73100000      15.13400000 
C      29.77600000      58.53900000      14.58000000 
C      30.14100000      58.02800000      13.31100000 
O      30.87200000      59.02700000      12.44800000 
C      30.67000000      58.28700000      15.87900000 
C      30.35600000      58.48300000      17.11700000 
C      31.99700000      58.92100000      15.59500000 
C      29.74800000      60.01400000      17.35400000 
H      28.38000000      57.50800000      15.36800000 
H      29.62800000      59.79300000      14.63100000 
H      30.81600000      57.08100000      15.60900000 
H      29.09600000      57.76500000      17.29700000 
H      30.73900000      58.07900000      17.74500000 
H      32.66100000      58.64900000      16.36400000 
H      32.49100000      58.60400000      14.62800000 
H      31.87500000      59.91100000      15.49800000 
H      29.39700000      60.00200000      18.44700000 
H      30.70000000      60.48400000      17.39000000 
H      29.04700000      60.28300000      16.71800000 
N      30.20400000      57.33000000      12.86700000 
C      30.44300000      56.41800000      11.80300000 
C      29.88900000      57.01000000      10.57300000 
O      30.56400000      57.08500000       9.44600000 
C      30.47200000      54.71800000      11.71400000 
C      31.35600000      54.27000000      12.61600000 
C      32.56100000      54.39700000      12.69800000 
O      33.24700000      54.71200000      11.31700000 
O      33.54400000      54.13100000      13.48300000 
H      29.37800000      56.17000000      13.70600000 
H      31.71300000      56.67000000      11.68900000 
H      29.36400000      54.69200000      11.88600000 
H      30.68300000      54.56400000      10.85100000 
H      31.02500000      54.65600000      13.81500000 
H      31.02500000      53.17500000      12.82100000 
N      28.79700000      57.48400000      10.56400000 
C      27.91800000      57.88100000       9.52700000 
C      27.78600000      59.85600000       9.34700000 
O      27.48700000      59.94600000       8.88100000 
C      26.55600000      57.38100000       9.53300000 
C      26.58100000      55.93500000       9.35200000 
C      25.34400000      58.02100000      10.33100000 
H      28.10500000      57.29800000      11.57600000 
H      28.58900000      57.72700000       8.60500000 
H      26.19400000      57.87200000       8.27700000 
H      25.68700000      55.55200000       9.01000000 
H      27.47000000      55.57100000       8.52200000 
H      26.92000000      55.54600000      10.29300000 
H      24.76000000      57.51100000      10.27300000 
H      26.03400000      57.55500000      11.51000000 
H      25.55700000      58.91200000      10.43500000 
N      28.86100000      60.07200000      10.29200000 
C      29.06100000      61.75500000      10.27000000 
C      29.44500000      61.63900000       9.11500000 
O      31.56300000      62.38500000       9.29800000 
C      29.44000000      62.17300000      11.71900000 
C      28.71400000      61.97900000      12.46200000 
C      28.71900000      62.39800000      13.92500000 
O      30.51900000      62.32200000      14.38700000 
O      28.25000000      62.82000000      14.95700000 
H      29.34100000      59.61700000      11.01300000 
H      28.02200000      62.02500000      10.12600000 
H      30.42700000      61.36100000      11.95100000 
H      30.02300000      62.97500000      11.42300000 
H      27.70100000      62.93600000      12.39200000 
H      28.02200000      61.15700000      12.78000000 
N      29.31600000      61.98700000       7.92900000 
C      30.11400000      62.17600000       6.87900000 
C      30.73600000      63.53700000       6.66400000 
O      31.78800000      63.76400000       6.32400000 
C      29.05100000      61.89400000       5.33800000 
C      27.99500000      62.72000000       5.65800000 
O      27.46900000      63.51600000       6.45100000 
N      27.03200000      62.70200000       4.28800000 
H      28.30300000      61.60500000       7.86900000 
H      30.88300000      61.55100000       6.62200000 
H      29.81600000      62.23300000       4.56600000 
H      28.95400000      60.96100000       5.49100000 
H      26.39200000      63.03400000       4.24700000 
H      27.56400000      61.94300000       3.43500000 
N      29.84200000      64.52700000       7.26400000 
C      30.05900000      66.06400000       7.30600000 
C      30.14900000      66.50400000       8.49600000 
O      30.36800000      67.85400000       8.76600000 
C      29.83700000      66.63500000       6.25700000 
C      30.31300000      68.01400000       5.72100000 
C      29.90900000      68.72000000       4.69200000 
O      28.65100000      68.11300000       3.84700000 
N      30.38300000      69.89600000       4.13700000 
H      28.88400000      64.36800000       7.33400000 
H      31.61800000      65.93400000       7.05600000 
H      29.74100000      66.05200000       5.16000000 
H      28.57800000      66.82400000       6.32300000 
H      30.17800000      68.78600000       6.73700000 
H      31.41200000      67.91400000       5.69400000 
H      31.12800000      70.20000000       4.69000000 
H      30.07200000      70.25900000       3.46900000 
N      29.57400000      65.82900000       9.45000000 
C      29.11000000      66.54100000      10.79900000 
C      30.31800000      67.33700000      11.83600000 
O      30.08100000      67.89800000      12.01200000 
C      28.32900000      65.61800000      11.55300000 
H      29.35700000      64.82600000       9.40000000 
H      28.52400000      67.26700000      10.52400000 
H      27.92400000      65.99900000      12.52200000 
H      27.51000000      65.01400000      11.04300000 
H      29.03000000      64.63400000      11.96000000 
N      31.16600000      66.20100000      11.48000000 
C      32.61100000      66.64400000      12.32500000 
C      32.41900000      66.21000000      13.88600000 
O      31.95300000      67.39500000      14.51900000 
C      33.31000000      68.10500000      11.77000000 
C      34.02000000      68.44400000      12.47500000 
O      35.19300000      67.36400000      13.19500000 
N      34.90900000      69.42300000      12.73700000 
H      31.43500000      65.52300000      11.11600000 
H      33.42700000      65.97700000      11.90600000 
H      33.08900000      68.19900000      11.05100000 
H      32.16100000      68.87000000      12.35700000 
H      35.55300000      70.00600000      13.01600000 
H      33.94000000      70.59500000      12.18500000 
N      32.67700000      65.63000000      14.25800000 
C      32.48200000      65.13600000      15.63100000 
C      33.16900000      65.96800000      16.60000000 
O      34.41100000      66.27800000      16.44100000 
C      33.15800000      63.49000000      16.10300000 
C      34.12100000      63.32100000      14.79800000 
C      33.55400000      64.01700000      13.63500000 
H      31.41100000      65.09300000      15.82400000 
H      33.25500000      63.42800000      16.78900000 
H      32.08100000      62.83700000      15.58700000 
H      35.02100000      63.92800000      15.27800000 
H      34.28200000      62.58600000      14.66200000 
H      34.50900000      64.76700000      13.04400000 
H      32.97500000      63.65800000      13.04800000 
N      31.29000000      64.52400000      21.53500000 
C      30.69800000      62.87200000      20.72400000 
C      31.64800000      62.50400000      20.77400000 
O      31.64200000      60.69900000      20.87100000 
C      30.38600000      63.51600000      19.37100000 
C      29.09500000      64.62200000      19.40400000 
C      28.74400000      65.16700000      17.90600000 
O      29.79400000      65.43800000      17.36700000 
O      27.86100000      65.34400000      17.85300000 
H      31.29000000      65.17500000      21.11000000 
H      30.00800000      62.73900000      21.21000000 
H      31.34600000      64.28100000      18.90500000 
H      30.33800000      62.78900000      18.72300000 
H      28.25100000      63.76000000      19.65100000 
H      29.25100000      65.21800000      20.10000000 
N      33.27600000      62.75700000      20.44900000 
C      34.39300000      61.76500000      20.27000000 
C      34.44200000      60.84300000      21.69600000 
O      34.72000000      59.85900000      21.62900000 
C      35.48400000      62.60400000      20.06500000 
O      35.29200000      63.11300000      18.67700000 
C      36.64900000      61.86500000      19.71400000 
H      33.17500000      63.49400000      20.40300000 
H      34.06700000      61.04000000      19.60600000 
H      35.57000000      63.39600000      20.85800000 
H      34.45200000      64.02200000      18.87900000 
H      37.50100000      62.39000000      19.62400000 
H      36.93600000      61.27700000      20.88300000 
H      36.55900000      61.02900000      19.25500000 
N      32.01700000      58.26300000      22.41100000 
C      32.17100000      57.30100000      21.22400000 
C      33.08600000      56.17000000      22.06200000 
O      33.18200000      55.18700000      21.96800000 
C      32.44800000      58.17500000      20.11600000 
H      32.02900000      59.29700000      21.85100000 
H      31.22100000      56.54300000      21.44800000 
H      32.60400000      56.70600000      19.20500000 
H      31.75600000      58.21700000      19.75000000 
H      33.18300000      58.14400000      20.01800000 
H      27.47983752      48.38376223      18.93857469 
H      32.67967497      66.30847536      17.40289323 
H      30.76615249      64.71669228      22.24101238 
H      34.20302540      61.26306226      22.57146492 
H      31.24390523      58.09122739      22.83857297 
H      33.67457250      56.46240885      22.81571047 
