 340 
 
N               113.1989166012       63.1432271110      157.2320337631
C               113.0682264330       61.7022124851      157.3051973910
C               114.2839191062       61.0789130769      158.0052820087
O               115.4257175283       61.4744440034      157.8666230691
C               112.9145910888       61.1030615987      155.8985037974
C               114.1992473920       61.0468245441      155.0599483506
C               113.9363479342       60.2379055403      153.7907800770
C               114.7242007684       62.4376479375      154.7125204526
H               112.7595034569       63.5932038133      156.4321772290
H               112.1658956924       61.4616979857      157.8862427730
H               112.5352534833       60.0855846421      156.0099191139
H               112.1679931830       61.6988345704      155.3689120907
H               114.9801271285       60.5359713253      155.6312018506
H               114.8447636574       60.1959734916      153.1935709337
H               113.6393423158       59.2265642835      154.0521866154
H               113.1531006883       60.7056466282      153.1976599491
H               115.5567101905       62.3713328657      154.0125788595
H               113.9505775929       63.0523840135      154.2529822847
H               115.0867497581       62.9471461922      155.6014185937
N               110.4459682084       56.3765367054      157.8355937799
C               111.1463334649       55.6357235621      156.8091700109
C               111.6723245656       54.2917725543      157.3382768464
O               112.8534264126       53.9992445501      157.3889087727
C               112.2527906323       56.4649067300      156.1382279467
C               112.0202333018       56.6126805302      154.6343616784
C               110.8338990470       57.5374409999      154.3358321641
C               110.3615932802       57.4810772845      152.8886701191
N               109.5957127103       56.2268878010      152.6358610229
H               110.9483106164       56.6569899396      158.6670193252
H               110.3737977587       55.3794871877      156.0729710573
H               112.2970433070       57.4470442264      156.6094168835
H               113.2049312910       55.9620523388      156.3142111250
H               112.9257158650       57.0214633873      154.1876841725
H               111.8890617546       55.6128890089      154.2146784907
H               109.9958204600       57.3018330252      154.9937765850
H               111.1326650212       58.5625181511      154.5514198967
H               109.7050267796       58.3273164568      152.6834719953
H               111.2089617272       57.5093034348      152.2036745786
H               109.2551262636       56.1915415467      151.6649717124
H               110.2007190494       55.4090231468      152.7935633362
H               108.7935692300       56.1712092108      153.2826414336
N               111.5595734701       51.8254412537      155.6300522837
C               112.3110037333       51.2728352045      154.5162898549
C               113.5717900499       52.1271872514      154.3102825980
O               113.6337947597       53.0730138604      153.5348053590
C               111.5084585693       51.2165126473      153.2335764405
C               112.4714106965       50.8935735291      152.0548309991
O               113.5706130462       50.3648404711      152.3547523639
O               112.1007258543       51.2067557252      150.9157320757
H               110.5938625668       52.0492452012      155.4444757297
H               112.6336504963       50.2572619923      154.7827269248
H               110.7421029316       50.4423087529      153.2945310433
H               111.0387945832       52.1740160975      153.0109840480
N               114.5890491557       51.7393685675      155.0840316073
C               115.8638987674       52.4180896358      155.0695207490
C               116.6174416581       52.1550997948      153.7653277033
O               117.4151279091       52.9782091911      153.3357074701
C               116.7286466761       51.9491497102      156.2339969885
H               114.3932007525       51.0838540308      155.8312780720
H               115.6946439464       53.5016166376      155.1299153011
H               117.6587739107       52.5098725033      156.2446475118
H               116.1952332706       52.1041925601      157.1679365976
H               116.9510103862       50.8905618376      156.1286187509
N               116.4352262736       50.9485448803      153.2170589882
C               117.1272011042       50.5575872283      152.0024323914
C               116.6918540888       51.4212541676      150.8149341259
O               117.5192999054       51.9599271867      150.0858106698
C               116.8748789144       49.0848110134      151.7101548857
H               115.5984922425       50.4286986472      153.4471272263
H               118.1958959625       50.7474859303      152.1589695298
H               117.3587943791       48.8001643672      150.7804419238
H               117.2636492928       48.4694537458      152.5166523432
H               115.8054672830       48.9076916456      151.6145809403
N               115.3789765392       51.5443074261      150.6578796674
C               114.8306356702       52.3259453626      149.5725688475
C               115.4399460601       53.7188410223      149.5306101850
O               115.9201326505       54.1908201139      148.5079652395
H               114.7187975920       51.0378712798      151.2668438296
H               115.0317701502       51.8475319339      148.6066596328
H               113.7495480557       52.3825572406      149.7154408242
N               115.4223989766       54.4011436030      150.6863250538
C               115.9538961899       55.7478018467      150.6987378027
C               117.4815843032       55.7680718674      150.7270038638
O               118.0830518297       56.7078603620      150.2101791814
C               115.3378450018       56.6341569649      151.7777887162
C               113.9270309481       57.0853429511      151.3759303761
C               113.9489991501       57.8080898502      150.0369930559
O               113.6560966086       57.2532042646      148.9882149718
N               114.3025836122       59.0992131910      150.0997552099
H               114.9944347398       54.0134811625      151.5158795360
H               115.7056127719       56.1796382155      149.7189768306
H               115.2964792550       56.0864115326      152.7205499239
H               115.9850108491       57.5038547171      151.9038439615
H               113.2930890676       56.2040067790      151.2759623679
H               113.5365943103       57.7577864290      152.1372592808
H               114.6056455141       59.5354942641      150.9534791994
H               114.4133335207       59.6231391048      149.2467861907
N               118.1196085832       54.7285121053      151.2547739745
C               119.5552047216       54.6201389138      151.0729270040
C               119.8574170593       54.7352924909      149.5774839479
O               120.7770362113       55.4364364761      149.1697582685
C               120.0806171041       53.3003421196      151.6188852750
H               117.6624808006       54.0122794267      151.8086668260
H               120.0482545887       55.4668948412      151.5683876406
H               121.1594507358       53.2673268767      151.5058608647
H               119.8203101994       53.2188528058      152.6701369437
H               119.6207133470       52.4805798023      151.0743962633
N               119.1024104897       53.9775719196      148.7822351611
C               119.2462992346       54.0059748849      147.3404622178
C               119.0235668141       55.4238171654      146.8131341580
O               119.8564362019       55.9477335977      146.0801847995
C               118.3234198985       52.9815091068      146.6621213114
C               118.7814421498       51.5604124279      147.0178921836
C               118.3265214056       53.2095959844      145.1522756831
C               117.7834686286       50.4868439456      146.5978352875
H               118.3477535122       53.4206251420      149.1702116104
H               120.2905452319       53.7720419792      147.0890675496
H               117.3115877004       53.1397581867      147.0451661696
H               119.7363794788       51.3656924569      146.5263456101
H               118.9075237893       51.4978940849      148.0989612298
H               117.6684173893       52.5017795948      144.6592649857
H               117.9794843156       54.2099849751      144.9055574584
H               119.3280595684       53.0980464981      144.7428347402
H               118.1236483669       49.5091183724      146.9292667957
H               116.8099415507       50.6776925711      147.0443040206
H               117.6630450468       50.4529703898      145.5188611638
N               117.9330145700       56.0679359354      147.2290218642
C               117.7123764796       57.4403844394      146.8008998491
C               118.9911815780       58.2605145592      147.0269686285
O               119.4517854975       59.0042149894      146.1676694501
C               116.5679979823       58.0791276339      147.5736571707
H               117.1980244131       55.5795421624      147.7289460184
H               117.5053377200       57.4548345997      145.7212258461
H               116.4120536020       59.0943086544      147.2180298526
H               115.6507030477       57.5100251317      147.4374274020
H               116.8167494821       58.1180130175      148.6318061126
N               119.5371884395       58.1060705403      148.2317203170
C               120.7004515194       58.8614433000      148.6398536652
C               121.8969930277       58.5244267604      147.7457330449
O               122.6749490915       59.3964855240      147.3666739306
C               121.0431024028       58.5469557783      150.0928810535
C               119.9966854315       59.0991889078      151.0561076186
O               119.0233484481       59.7407370907      150.7048472735
N               120.2524221497       58.8148742635      152.3449078819
H               119.0531459675       57.5693310170      148.9430775861
H               120.4950381037       59.9345195084      148.5255747193
H               121.1045438575       57.4628439473      150.2068294080
H               122.0105562405       58.9893947322      150.3357453607
H               119.6410820074       59.1841019903      153.0548633366
H               121.0937407904       58.3429393805      152.6269516629
N               122.0456559992       57.2334944018      147.4708770695
C               123.0748201198       56.7561240865      146.5756022654
C               122.9209653168       57.3809195198      145.1872897981
O               123.9307920966       57.6782719055      144.5515846898
C               123.0615960298       55.2316466601      146.4833759537
C               123.5068460721       54.5961551606      147.8006955302
C               123.4054836878       53.0705714560      147.7525385523
N               123.7694580392       52.5258959042      149.0477676499
C               123.1362277487       51.5975120462      149.7553780808
N               122.0946527132       50.9286912810      149.2690710817
N               123.5593610595       51.3264425603      150.9904422650
H               121.3816499261       56.5578881292      147.8404495970
H               124.0509806090       57.0987207020      146.9458625937
H               122.0478759371       54.9271039038      146.2207633902
H               123.7275862157       54.9364465966      145.6713310887
H               124.5359364241       54.8937672137      148.0056884655
H               122.8667241256       54.9670436636      148.6013194512
H               122.3795758580       52.7990486146      147.5040875865
H               124.0723427861       52.6715287816      146.9824340680
H               124.5741811623       52.9712885431      149.4684300881
H               121.7715848883       51.0631897169      148.3262014901
H               121.6207574671       50.2400390356      149.8298816829
H               124.3565103378       51.7977382678      151.3857934903
H               123.1377296182       50.5880613676      151.5301965258
N               121.6841536311       57.5828179098      144.7530598727
C               121.4280208587       58.2526363418      143.4967185255
C               121.9103839635       59.6994893750      143.5698908876
O               122.4890961084       60.2134789993      142.6137324362
C               119.9445146690       58.2325106350      143.1409984239
C               119.3711298763       56.8839651943      142.7843899027
C               117.9855309839       56.7503200629      142.7705968016
C               120.1465881385       55.7933711305      142.4170196347
C               117.3860052391       55.5657497728      142.3857866749
C               119.5458088639       54.6053361034      142.0322832572
C               118.1680963283       54.4869592565      142.0083017685
H               120.8910812618       57.2230604098      145.2725723436
H               122.0239032108       57.7734174500      142.7092274555
H               119.3903862203       58.6517735310      143.9839872946
H               119.8033438369       58.8982606788      142.2831925785
H               117.3708939966       57.5937360993      143.0536126169
H               121.2226119923       55.8592277729      142.4113238485
H               116.3088970286       55.4848495351      142.3770623572
H               120.1643397331       53.7700534891      141.7397681032
H               117.7057032958       53.5619441036      141.6987737974
N               121.6904040832       60.3520585450      144.7112017248
C               122.2119028910       61.6966004852      144.8752836766
C               123.7422442658       61.6494601194      144.8009484624
O               124.3864314449       62.4917056215      144.1833199299
C               121.7427958326       62.3080087259      146.2058037651
O               120.3320843659       62.2134519120      146.2261304349
C               122.1994147993       63.7628634038      146.3166285850
H               121.0131117816       60.0091276704      145.3872225519
H               121.8634335484       62.3254458792      144.0453706309
H               122.1673964507       61.7028922064      147.0196350456
H               120.0183037355       62.6015760105      147.0515950533
H               121.9732069222       64.1561580415      147.3034437113
H               123.2657433538       63.8428202696      146.1328210856
H               121.6837084556       64.3588189718      145.5682395160
N               124.3172904869       60.6581369656      145.4789753672
C               125.7497214142       60.4360791154      145.4058247126
C               126.1785047358       60.2387563064      143.9500994212
O               127.1968677107       60.7733466915      143.5188432584
C               126.1511460788       59.2372045549      146.2542705997
H               123.7575178297       60.0228138501      146.0438418194
H               126.2686428920       61.3401550756      145.7482941809
H               127.2332296809       59.1414434879      146.2685119870
H               125.7855691721       59.3680435685      147.2691644788
H               125.7291357501       58.3332286612      145.8240785440
N               125.3749163189       59.4833697546      143.2034680949
C               125.6431752497       59.3055137791      141.7952462833
C               125.6527594324       60.6808918103      141.1204577424
O               126.5574661173       60.9692919905      140.3449413133
C               124.6119065647       58.4102872907      141.1081313175
C               124.5960357559       56.9623682822      141.5854975917
O               123.5649943641       56.4090846385      141.9288676761
N               125.7796727196       56.3352872970      141.5768573176
H               124.6451297435       58.9125560062      143.6292116853
H               126.6590141444       58.9072281793      141.6599803212
H               123.6168908618       58.8337087688      141.2550051840
H               124.8264809931       58.4041841605      140.0367348349
H               125.8194522953       55.3615939906      141.8332957310
H               126.6049187207       56.7579900429      141.1891192255
N               124.6674701981       61.5150916655      141.4390790795
C               124.6135163294       62.8405653378      140.8489670553
C               125.9324836792       63.5620699880      141.1335772227
O               126.5592416532       64.1169276169      140.2330748958
C               123.3988075973       63.6438922123      141.3408538913
C               122.1092521586       63.0151612749      140.7938614383
C               123.5422439192       65.1016910525      140.9046570550
C               120.8414487313       63.6916944175      141.3062989090
H               123.8871941212       61.1946851424      142.0077222817
H               124.5620249650       62.7433204633      139.7543619566
H               123.3950043091       63.5957707010      142.4330043268
H               122.1287606915       63.0580895278      139.7021799577
H               122.0814482327       61.9619392525      141.0764465439
H               122.7020673448       65.6916989419      141.2533711538
H               124.4527019035       65.5389932072      141.3057356160
H               123.5920028224       65.1721283314      139.8198334077
H               119.9696679393       63.1285026236      140.9840163200
H               120.8475216488       63.7298623848      142.3915908416
H               120.7498788674       64.7025013907      140.9196562335
N               115.1046448057       63.4223382486      139.0986220720
C               115.5418712430       62.7733504385      140.3182327034
C               115.3785842568       63.7122257335      141.5088914055
O               114.8926140735       63.3257329390      142.5654391566
C               117.0073020795       62.3464625627      140.2022086692
C               117.2310104057       61.1457165196      139.2710082173
C               118.7155108204       61.0414592955      138.9231810707
C               116.7544289911       59.8454119533      139.9126622117
H               115.7861749814       63.4907769747      138.3489314310
H               114.9007772808       61.9057183522      140.5158767698
H               117.5716976080       63.2053548448      139.8350838934
H               117.3760090083       62.0945420263      141.1980289757
H               116.6722354303       61.3094031047      138.3447068022
H               118.8963836976       60.1859808846      138.2769864454
H               119.0532724307       61.9357931110      138.4053358195
H               119.3151154141       60.9173114132      139.8222359925
H               116.9123863231       59.0098071978      139.2354169741
H               117.3101231979       59.6486573856      140.8267724310
H               115.6960245461       59.8866436912      140.1538416157
N               113.0329315892       62.6347345822      144.6426398149
C               113.4288455356       62.4837166995      146.0266377423
C               112.7772864506       63.5652968873      146.8931990156
O               112.3499835827       63.2814761728      148.0097325792
C               114.9393533206       62.3714475618      146.2178398595
C               115.7406313467       63.6167874404      145.8531535312
C               117.2197786030       63.3638766664      146.1828832176
N               118.0120486244       64.5755480207      146.1482810259
C               118.1041362047       65.4665389055      147.1397195743
N               117.6330003188       65.2135820232      148.3428912826
N               118.7569535350       66.6121981569      146.8972510306
H               113.7253564510       62.8655832941      143.9380494887
H               112.9744648681       61.5488343346      146.3914556763
H               115.1160803047       62.1615126018      147.2750258858
H               115.2900106728       61.5244221749      145.6264949760
H               115.6095604164       63.8605632384      144.7994690922
H               115.3824253608       64.4571594803      146.4495320446
H               117.2753201921       62.9249831985      147.1791547399
H               117.6620343948       62.6643274955      145.4733241433
H               118.3564091765       64.8539076181      145.2420540232
H               117.0137629193       64.4068896830      148.5830472628
H               117.6575596200       65.9198399399      149.0600420310
H               119.2096178169       66.7798080609      146.0147471953
H               118.9114685547       67.2740484256      147.6386598040
N               109.5742762940       62.2499282693      148.2159070831
C               109.6763992858       61.1574450761      149.1562722170
C               110.1614111052       61.6789906463      150.5143927780
O               109.5788681941       61.4322259046      151.5613492368
C               110.6196691620       60.0698188696      148.6121311649
C               110.1478818479       59.6001518041      147.2316113686
C               110.6768781304       58.9215774611      149.6137911123
C               111.1586892508       58.6934786408      146.5385729996
H               110.4396723766       62.5764589739      147.8088022902
H               108.6653119497       60.7616384895      149.3035764170
H               111.6139957188       60.5184624825      148.5124695455
H               109.1935161924       59.0824601315      147.3402438013
H               109.9832700981       60.4757573754      146.6015699195
H               111.3768496626       58.1658593549      149.2748741404
H               110.9959231014       59.3037077733      150.5789668680
H               109.6854842378       58.4888477903      149.7100196269
H               110.7811649620       58.4046071612      145.5616676058
H               112.0999902493       59.2200417434      146.4001366487
H               111.3559715000       57.7937802170      147.1124395556
N               111.3196904407       62.3567015957      150.4483083621
C               111.7384457011       63.2159835069      151.5341798007
C               110.6568922044       64.2758422603      151.7551020252
O               110.1782317669       64.9003251940      150.8136517555
C               113.0150399588       63.9634019751      151.1541345068
C               114.1885827616       63.0636082864      150.7945545078
C               115.3108105288       63.8871267196      150.1162445426
O               115.4939289300       65.0645315930      150.4619525238
O               115.9751653843       63.2886452203      149.2320250640
H               111.6431842494       62.6691396062      149.5411572691
H               111.8639992579       62.6218055876      152.4450008938
H               112.7735918347       64.5940165021      150.2931253485
H               113.2918708220       64.6353430600      151.9704513409
H               114.6006992708       62.5997558635      151.6916461841
H               113.8774863172       62.2860128015      150.0972026940
H               112.8272161709       63.5160442813      157.9619968771
H               114.1619335629       60.2988329381      158.6189549707
H               110.1340909245       57.1468933595      157.4902198009
H               111.0311059505       53.5981817412      157.6665609791
H               111.5527521467       51.2357346664      156.3099049225
H               126.2977870726       63.5875617626      142.0641166362
H               114.4058190643       62.9727246135      138.7529485812
H               115.6708503485       64.6658873079      141.4374062109
H               112.6722012251       61.8647737816      144.3476246119
H               112.6999209686       64.5014472105      146.5502162833
H               109.0548865099       62.0029011704      147.5236557815
H               110.3282240951       64.4697171992      152.6794340987
