566
Properties=species:S:1:pos:R:3 pbc="F F F"
N      29.77600000      13.87800000      13.20400000 
C      29.82800000      14.14300000      14.62200000 
C      30.84400000      15.21400000      14.91000000 
O      30.62100000      16.12500000      15.72800000 
C      30.15000000      12.81100000      15.29300000 
C      30.21600000      12.78500000      16.81300000 
C      31.48800000      13.41200000      17.36500000 
C      28.97600000      13.39400000      17.45100000 
H      29.67800000      12.93300000      12.90300000 
H      28.87800000      14.52700000      14.94500000 
H      29.37100000      12.13000000      14.97500000 
H      31.07800000      12.44400000      14.88000000 
H      30.23900000      11.73400000      17.07800000 
H      31.62000000      13.12200000      18.39900000 
H      32.35600000      13.07400000      16.81500000 
H      31.45100000      14.48900000      17.30700000 
H      28.98800000      13.23700000      18.52300000 
H      28.93700000      14.45900000      17.26800000 
H      28.07700000      12.94500000      17.05000000 
N      32.00500000      15.14200000      14.26600000 
C      33.05200000      16.10300000      14.51200000 
C      32.58500000      17.49600000      14.19500000 
O      32.90200000      18.47200000      14.89900000 
C      34.26000000      15.74300000      13.65600000 
C      35.26100000      16.88600000      13.53700000 
C      36.69300000      16.39700000      13.40200000 
C      37.22000000      16.01600000      14.76400000 
N      38.63300000      15.54400000      14.66300000 
H      32.12400000      14.46700000      13.54600000 
H      33.31900000      16.10200000      15.55500000 
H      34.72100000      14.87200000      14.09700000 
H      33.91300000      15.45900000      12.67200000 
H      34.99900000      17.49700000      12.68500000 
H      35.19600000      17.52700000      14.40500000 
H      36.74100000      15.54800000      12.73300000 
H      37.31500000      17.17900000      12.99000000 
H      37.21900000      16.86300000      15.42600000 
H      36.65400000      15.21700000      15.20800000 
H      39.00400000      15.31100000      15.56800000 
H      38.70000000      14.72800000      14.08000000 
H      39.22100000      16.25800000      14.26600000 
N      31.86300000      17.63900000      13.09500000 
C      31.39500000      18.93500000      12.68300000 
C      30.48400000      19.50900000      13.72800000 
O      30.51500000      20.71200000      14.04300000 
C      30.64700000      18.78300000      11.36700000 
C      31.56600000      18.36600000      10.23200000 
C      32.53000000      19.45900000       9.79800000 
C      31.84700000      20.72500000       9.33300000 
N      30.92800000      20.43400000       8.18600000 
H      31.46500000      16.83700000      12.65900000 
H      32.22600000      19.61200000      12.59000000 
H      29.88500000      18.03600000      11.50600000 
H      30.15400000      19.71200000      11.13600000 
H      32.13600000      17.49700000      10.52400000 
H      30.95900000      18.05400000       9.39200000 
H      33.18300000      19.72800000      10.61500000 
H      33.16000000      19.08800000       9.00100000 
H      31.24600000      21.17500000      10.10100000 
H      32.56300000      21.44400000       8.97800000 
H      30.58300000      21.28600000       7.77700000 
H      31.40100000      19.91600000       7.46500000 
H      30.12900000      19.89700000       8.47900000 
N      29.61500000      18.66600000      14.27200000 
C      28.64500000      19.13000000      15.22800000 
C      29.33400000      19.76000000      16.40600000 
O      28.90600000      20.80000000      16.93300000 
C      27.77300000      17.95100000      15.65100000 
C      26.56700000      18.39700000      16.41700000 
C      25.48000000      18.92400000      15.73300000 
C      26.51500000      18.31200000      17.79800000 
C      24.36500000      19.36500000      16.41600000 
C      25.39800000      18.75800000      18.48700000 
C      24.32200000      19.28500000      17.79700000 
H      29.62600000      17.70400000      14.00900000 
H      28.03200000      19.89900000      14.78900000 
H      27.46200000      17.44500000      14.74900000 
H      28.37100000      17.26400000      16.22700000 
H      25.51500000      18.98200000      14.66300000 
H      27.34600000      17.89800000      18.33300000 
H      23.53900000      19.77600000      15.87700000 
H      25.37000000      18.69300000      19.55400000 
H      23.46000000      19.63300000      18.32800000 
N      30.41900000      19.14000000      16.85900000 
C      31.14900000      19.65600000      17.99000000 
C      31.60000000      21.06600000      17.74400000 
O      31.52100000      21.93200000      18.62900000 
C      32.38700000      18.80900000      18.24100000 
C      32.08200000      17.42300000      18.77900000 
C      31.47000000      17.47400000      20.17000000 
C      31.63600000      16.20000000      20.95600000 
N      30.80200000      15.08000000      20.43000000 
H      30.73600000      18.30700000      16.41300000 
H      30.51400000      19.69100000      18.85800000 
H      32.93400000      18.74200000      17.31400000 
H      33.00600000      19.33200000      18.95800000 
H      31.44300000      16.88600000      18.09100000 
H      33.01700000      16.87900000      18.82900000 
H      31.96900000      18.24700000      20.74000000 
H      30.42200000      17.74500000      20.11900000 
H      32.65200000      15.86000000      20.93800000 
H      31.35600000      16.32800000      21.97900000 
H      30.95200000      14.28700000      21.04800000 
H      29.82600000      15.31800000      20.42400000 
H      31.06600000      14.82300000      19.49700000 
N      32.16200000      21.33100000      16.56700000 
C      32.68800000      22.65000000      16.32000000 
C      31.59300000      23.66500000      16.35300000 
O      31.77600000      24.80000000      16.82200000 
C      33.38600000      22.71600000      14.96400000 
C      34.88900000      22.51300000      15.07400000 
C      35.47400000      22.22600000      13.70200000 
C      35.54400000      23.74900000      15.67200000 
H      32.18000000      20.64000000      15.85100000 
H      33.36700000      22.91200000      17.10800000 
H      32.94200000      21.98000000      14.31200000 
H      33.21100000      23.68400000      14.51500000 
H      35.07500000      21.66400000      15.72000000 
H      36.54800000      22.11100000      13.75900000 
H      35.05000000      21.32400000      13.28100000 
H      35.25900000      23.05000000      13.03000000 
H      36.61000000      23.60300000      15.78300000 
H      35.38400000      24.59600000      15.01500000 
H      35.13400000      23.99600000      16.64100000 
N      30.44500000      23.32900000      15.76900000 
C      29.45700000      24.34600000      15.56600000 
C      28.75900000      24.70200000      16.84000000 
O      28.27500000      25.85100000      16.97900000 
C      28.46900000      23.92400000      14.48700000 
C      27.68900000      25.09500000      13.91200000 
C      28.60300000      26.08900000      13.21600000 
C      27.87200000      27.34400000      12.79500000 
N      28.84300000      28.47600000      12.80800000 
H      30.32200000      22.41700000      15.38600000 
H      29.96600000      25.24400000      15.27400000 
H      29.03900000      23.45800000      13.70100000 
H      27.79800000      23.17600000      14.88400000 
H      26.96100000      24.71500000      13.20700000 
H      27.14600000      25.60100000      14.69700000 
H      29.39000000      26.38500000      13.88800000 
H      29.07600000      25.62500000      12.36100000 
H      27.44200000      27.27200000      11.81400000 
H      27.11000000      27.60500000      13.50600000 
H      28.43700000      29.32700000      12.45600000 
H      29.10400000      28.61200000      13.78000000 
H      29.65800000      28.26900000      12.25800000 
N      28.67000000      23.79100000      17.78900000 
C      27.93000000      24.00500000      19.02100000 
C      28.30000000      25.32600000      19.63900000 
O      27.43400000      26.12800000      20.02400000 
C      28.24900000      22.82500000      19.93800000 
C      27.45200000      22.71400000      21.23400000 
C      27.86100000      23.72100000      22.29900000 
C      25.95400000      22.76900000      20.98100000 
H      29.04500000      22.88100000      17.61900000 
H      26.87700000      24.05600000      18.80900000 
H      28.06200000      21.93500000      19.35300000 
H      29.30700000      22.84300000      20.15800000 
H      27.68500000      21.72900000      21.62000000 
H      27.36700000      23.48500000      23.23400000 
H      28.93100000      23.69600000      22.46700000 
H      27.58000000      24.72500000      22.02400000 
H      25.41400000      22.51200000      21.88300000 
H      25.64900000      23.76200000      20.68100000 
H      25.66800000      22.07300000      20.20200000 
N      29.59400000      25.59100000      19.78100000 
C      30.06300000      26.77200000      20.46900000 
C      29.53000000      28.02400000      19.83900000 
O      29.39200000      29.05500000      20.51200000 
C      31.59700000      26.73500000      20.48000000 
C      32.30600000      28.07400000      20.67000000 
C      33.66000000      27.85200000      21.32800000 
C      32.50600000      28.77500000      19.33300000 
H      30.26500000      24.94400000      19.44100000 
H      29.69300000      26.77900000      21.48100000 
H      31.87900000      26.05500000      21.26900000 
H      31.93100000      26.30500000      19.54600000 
H      31.70900000      28.70500000      21.31200000 
H      34.20000000      28.78600000      21.40200000 
H      33.54600000      27.44000000      22.32300000 
H      34.25500000      27.16300000      20.74000000 
H      33.02400000      29.71400000      19.46900000 
H      33.10600000      28.14600000      18.68600000 
H      31.57500000      28.97400000      18.82900000 
N      29.28200000      27.99600000      18.53300000 
C      28.96300000      29.19600000      17.81800000 
C      27.49900000      29.52300000      17.82200000 
O      27.11700000      30.59800000      17.32600000 
C      29.48200000      29.12500000      16.39900000 
O      28.71700000      28.23300000      15.58200000 
H      29.27400000      27.12600000      18.05100000 
H      29.45700000      30.01700000      18.30900000 
H      29.40300000      30.09200000      15.94200000 
H      30.51400000      28.81600000      16.42600000 
H      28.59100000      27.35500000      15.95800000 
N      26.64700000      28.65000000      18.33900000 
C      25.23600000      28.93400000      18.27000000 
C      24.87300000      30.01200000      19.25700000 
O      25.38500000      30.04000000      20.38900000 
C      24.41500000      27.66100000      18.51200000 
C      24.37500000      27.24000000      19.97000000 
C      23.00000000      27.83500000      17.98500000 
H      26.96700000      27.81700000      18.78300000 
H      25.02700000      29.27900000      17.27700000 
H      24.91200000      26.89400000      17.93500000 
H      23.92800000      26.25700000      20.04500000 
H      25.36000000      27.20000000      20.40200000 
H      23.77400000      27.93100000      20.53800000 
H      22.45600000      26.90700000      18.09000000 
H      22.48300000      28.59500000      18.55100000 
H      23.00100000      28.11700000      16.94100000 
N      22.91700000      31.59300000      22.25400000 
C      22.33600000      31.01100000      23.43300000 
C      21.41300000      31.97100000      24.12700000 
O      21.48500000      33.19700000      23.96900000 
C      23.41000000      30.63700000      24.44900000 
C      24.39700000      29.59400000      23.96600000 
C      25.33600000      29.26900000      25.11300000 
C      23.69000000      28.33400000      23.49700000 
H      23.48400000      32.39800000      22.37700000 
H      21.78700000      30.14000000      23.13300000 
H      23.93900000      31.54000000      24.72800000 
H      22.92100000      30.26300000      25.33700000 
H      24.96400000      30.00300000      23.14100000 
H      26.04200000      28.50300000      24.83100000 
H      25.88900000      30.14300000      25.43300000 
H      24.77100000      28.90000000      25.95700000 
H      24.41500000      27.56800000      23.25300000 
H      23.04600000      27.95500000      24.28200000 
H      23.09100000      28.51900000      22.62000000 
N      24.92600000      29.17500000      29.84700000 
C      26.26800000      29.34100000      29.37100000 
C      26.65700000      28.32500000      28.33400000 
O      25.85100000      27.53100000      27.83300000 
H      24.65500000      28.27800000      30.17500000 
H      26.35300000      30.32600000      28.94500000 
H      26.97400000      29.27300000      30.18600000 
N      27.95400000      28.35000000      28.01900000 
C      28.59500000      27.36700000      27.19900000 
C      29.32200000      26.36800000      28.06200000 
O      29.66400000      26.62400000      29.22500000 
C      29.58900000      28.01600000      26.24400000 
C      28.88000000      28.79600000      25.15900000 
C      29.83400000      29.32100000      24.10800000 
N      30.73300000      30.34800000      24.61800000 
C      30.41600000      31.62500000      24.73200000 
N      29.19900000      32.04900000      24.43200000 
N      31.32400000      32.49800000      25.14400000 
H      28.54800000      28.97200000      28.51500000 
H      27.83400000      26.85300000      26.63800000 
H      30.24900000      28.65900000      26.81200000 
H      30.19500000      27.24400000      25.79300000 
H      28.17300000      28.14500000      24.66600000 
H      28.31600000      29.60600000      25.59700000 
H      30.45800000      28.52200000      23.74500000 
H      29.29800000      29.71200000      23.25900000 
H      31.64900000      30.07200000      24.88000000 
H      28.48300000      31.42700000      24.14900000 
H      28.97200000      33.01300000      24.48900000 
H      32.25400000      32.21400000      25.34000000 
H      31.09800000      33.45900000      25.24500000 
N      29.59600000      25.21100000      27.46700000 
C      30.29200000      24.13600000      28.11700000 
C      31.76500000      24.20800000      27.78700000 
O      32.13700000      24.49600000      26.63700000 
C      29.70300000      22.80400000      27.64300000 
C      28.23900000      22.72000000      28.04800000 
C      30.52100000      21.64600000      28.17900000 
C      27.56000000      21.43700000      27.59400000 
H      29.32100000      25.07300000      26.52500000 
H      30.13900000      24.24200000      29.17400000 
H      29.75300000      22.79800000      26.56600000 
H      28.15800000      22.81600000      29.11900000 
H      27.71200000      23.56200000      27.62400000 
H      30.10500000      20.70700000      27.86100000 
H      31.54300000      21.68700000      27.84400000 
H      30.53000000      21.67300000      29.25700000 
H      26.49300000      21.50600000      27.75600000 
H      27.73400000      21.26000000      26.54000000 
H      27.91900000      20.57400000      28.13700000 
N      32.65500000      23.91800000      28.73100000 
C      34.07100000      23.96000000      28.42700000 
C      34.45500000      22.94400000      27.38900000 
O      33.94800000      21.81800000      27.31300000 
C      34.74700000      23.65200000      29.76800000 
C      33.66800000      22.92700000      30.56100000 
C      32.40100000      23.64400000      30.14600000 
H      34.34000000      24.93400000      28.06000000 
H      35.64500000      23.07100000      29.64300000 
H      35.00300000      24.58200000      30.25200000 
H      33.61100000      21.89300000      30.25600000 
H      33.83500000      22.97300000      31.62400000 
H      31.52500000      23.04500000      30.28000000 
H      32.27900000      24.57500000      30.68200000 
N      35.44500000      23.31600000      26.56700000 
C      35.76000000      22.54600000      25.39400000 
C      36.47700000      21.27200000      25.71000000 
O      36.46200000      20.32800000      24.90100000 
C      36.67000000      23.31600000      24.43700000 
C      36.35600000      24.80200000      24.34700000 
C      36.72500000      25.39400000      23.00300000 
N      38.07500000      25.01100000      22.61500000 
C      38.64000000      25.40700000      21.48700000 
N      38.03800000      26.29800000      20.71900000 
N      39.80900000      24.90900000      21.11500000 
H      35.83000000      24.22500000      26.65700000 
H      34.84300000      22.28600000      24.89500000 
H      37.69400000      23.18400000      24.75700000 
H      36.57200000      22.85100000      23.46800000 
H      35.30000000      24.97200000      24.48900000 
H      36.88000000      25.33400000      25.12700000 
H      36.03500000      25.04300000      22.25000000 
H      36.65800000      26.46900000      23.05900000 
H      38.57100000      24.36100000      23.17600000 
H      37.18200000      26.72500000      20.98200000 
H      38.44800000      26.58700000      19.86300000 
H      40.25500000      24.19800000      21.64600000 
H      40.25500000      25.21900000      20.28500000 
N      37.21700000      21.23100000      26.81000000 
C      38.13900000      20.14300000      27.01200000 
C      37.41800000      18.83400000      27.07900000 
O      37.84000000      17.83100000      26.48900000 
H      37.20500000      21.99700000      27.44000000 
H      38.83900000      20.08100000      26.19900000 
H      38.67200000      20.30700000      27.93300000 
N      36.30400000      18.80100000      27.81300000 
C      35.49900000      17.61300000      27.81800000 
C      34.80700000      17.48200000      26.49500000 
O      34.80200000      16.38800000      25.89700000 
C      34.48100000      17.63200000      28.94200000 
H      35.98500000      19.61900000      28.27600000 
H      36.13800000      16.75400000      27.90800000 
H      33.86700000      16.74400000      28.89500000 
H      34.99500000      17.64800000      29.89000000 
H      33.84500000      18.50200000      28.86600000 
N      34.17500000      18.53200000      26.00000000 
C      33.34800000      18.40700000      24.82400000 
C      34.05100000      17.72500000      23.69700000 
O      33.42700000      16.92800000      22.98300000 
C      32.92100000      19.76900000      24.31500000 
C      31.90700000      20.48600000      25.18100000 
C      31.66600000      21.85400000      24.56800000 
C      30.61000000      19.70000000      25.28200000 
H      34.24100000      19.41600000      26.45000000 
H      32.49200000      17.79600000      25.04900000 
H      33.80900000      20.37400000      24.20500000 
H      32.49200000      19.63400000      23.33100000 
H      32.31900000      20.62400000      26.16500000 
H      31.03500000      22.45900000      25.19300000 
H      32.60000000      22.38300000      24.44000000 
H      31.19500000      21.74600000      23.59800000 
H      29.83900000      20.30000000      25.73900000 
H      30.27100000      19.41100000      24.29400000 
H      30.72900000      18.80400000      25.87600000 
N      35.30600000      18.05900000      23.42000000 
C      35.91900000      17.48300000      22.24900000 
C      36.00700000      15.98700000      22.36600000 
O      36.03000000      15.28400000      21.34100000 
C      37.29500000      18.09100000      21.99900000 
C      37.26300000      19.16400000      20.92200000 
C      36.27500000      20.27000000      21.25000000 
C      38.65800000      19.73200000      20.72900000 
H      35.77500000      18.76400000      23.95000000 
H      35.28700000      17.65900000      21.39500000 
H      37.67300000      18.50600000      22.92300000 
H      37.98000000      17.31500000      21.69000000 
H      36.95100000      18.68700000      19.99900000 
H      36.29200000      21.02800000      20.47700000 
H      35.26500000      19.89200000      21.32900000 
H      36.53400000      20.73300000      22.19300000 
H      38.67200000      20.45300000      19.92200000 
H      38.98200000      20.23000000      21.63500000 
H      39.36800000      18.94700000      20.50000000 
N      36.11000000      15.48400000      23.58900000 
C      36.21800000      14.07700000      23.83800000 
C      34.87800000      13.39700000      23.94200000 
O      34.73400000      12.23000000      23.54700000 
C      36.94300000      13.84400000      25.14400000 
O      38.28100000      14.30500000      24.97600000 
H      36.01800000      16.09000000      24.37100000 
H      36.75300000      13.61100000      23.03400000 
H      36.44600000      14.38900000      25.92900000 
H      36.92700000      12.79000000      25.37500000 
H      38.74600000      14.37000000      25.80500000 
N      33.91200000      14.07100000      24.54800000 
C      32.62600000      13.48100000      24.83400000 
C      32.01400000      12.94200000      23.56200000 
O      31.86000000      13.66300000      22.55400000 
C      31.73300000      14.54400000      25.45300000 
C      32.21200000      15.03300000      26.80500000 
S      32.49000000      13.70400000      28.09300000 
C      31.36400000      14.34000000      29.42600000 
H      34.07600000      15.01100000      24.83200000 
H      32.74600000      12.65700000      25.51800000 
H      31.72000000      15.39600000      24.78700000 
H      30.72800000      14.17500000      25.52700000 
H      33.14500000      15.53900000      26.71200000 
H      31.48900000      15.70500000      27.23300000 
H      31.35800000      13.61300000      30.22000000 
H      31.74000000      15.28200000      29.78700000 
H      30.37300000      14.45900000      29.02200000 
N      31.64600000      11.67800000      23.59700000 
C      31.04100000      11.03300000      22.47200000 
C      29.61400000      11.46800000      22.34800000 
O      29.08900000      12.22900000      23.17600000 
C      31.16100000       9.52700000      22.63700000 
C      32.44900000       9.01000000      22.03800000 
O      32.85200000       9.56300000      20.97600000 
O      33.00200000       8.03800000      22.61900000 
H      31.72800000      11.16000000      24.45800000 
H      31.55700000      11.31200000      21.56900000 
H      31.10700000       9.26700000      23.67900000 
H      30.34900000       9.02700000      22.12900000 
N      28.88700000      10.97800000      21.34800000 
C      27.48200000      11.30600000      21.25400000 
C      26.80800000      11.01400000      22.56400000 
O      25.93900000      11.76900000      23.02700000 
C      26.86500000      10.47300000      20.14800000 
H      29.29200000      10.39500000      20.65700000 
H      27.35000000      12.35500000      21.06400000 
H      25.80700000      10.66200000      20.07800000 
H      27.32800000      10.72500000      19.20400000 
H      27.02500000       9.42400000      20.34700000 
N      27.96700000      10.86900000      25.61100000 
C      28.39200000      11.78700000      26.63200000 
C      27.76700000      13.12800000      26.39800000 
O      27.37400000      13.83800000      27.34000000 
C      29.88800000      11.93300000      26.53200000 
C      30.62000000      10.65900000      26.84600000 
O      30.23500000       9.97900000      27.82800000 
O      31.60000000      10.37000000      26.08600000 
H      28.62400000      10.59800000      24.92100000 
H      28.09500000      11.43900000      27.60100000 
H      30.13200000      12.24300000      25.53600000 
H      30.22200000      12.68900000      27.22000000 
N      27.68900000      13.51200000      25.13600000 
C      27.02000000      14.72900000      24.76900000 
C      25.61900000      14.66000000      25.29000000 
O      25.14000000      15.62500000      25.89900000 
C      27.08600000      14.89100000      23.25800000 
C      26.36600000      16.11000000      22.70400000 
C      26.92800000      17.41100000      23.25300000 
C      26.48700000      16.09200000      21.18700000 
H      28.08500000      12.95100000      24.41100000 
H      27.47400000      15.56800000      25.26300000 
H      28.13200000      14.94800000      22.98600000 
H      26.68200000      14.00000000      22.80600000 
H      25.31600000      16.04800000      22.96500000 
H      26.43100000      18.25700000      22.79400000 
H      26.79700000      17.48700000      24.32300000 
H      27.98700000      17.47900000      23.02900000 
H      25.95400000      16.92300000      20.74800000 
H      27.52900000      16.17200000      20.90000000 
H      26.09100000      15.17300000      20.77300000 
N      25.64100000      15.08400000      29.18700000 
C      26.07400000      16.37000000      29.65300000 
C      25.12000000      17.43800000      29.18700000 
O      24.75000000      18.33700000      29.96700000 
C      27.50600000      16.63200000      29.22200000 
C      28.13300000      17.72200000      30.06400000 
C      29.55400000      18.02100000      29.62700000 
C      30.28800000      18.89400000      30.61600000 
N      29.45800000      20.09300000      30.97000000 
H      26.17400000      14.59700000      28.49600000 
H      26.02000000      16.38400000      30.72700000 
H      28.06000000      15.71500000      29.35400000 
H      27.54100000      16.88200000      28.17100000 
H      27.52800000      18.61700000      30.00400000 
H      28.13200000      17.40300000      31.10000000 
H      30.10900000      17.09900000      29.53500000 
H      29.54400000      18.49200000      28.65500000 
H      30.47300000      18.37600000      31.54000000 
H      31.21600000      19.26100000      30.21600000 
H      30.00300000      20.77100000      31.47600000 
H      29.09200000      20.54400000      30.15000000 
H      28.67800000      19.83500000      31.54900000 
N      24.70000000      17.38100000      27.93700000 
C      23.79700000      18.36400000      27.37000000 
C      22.53400000      18.41400000      28.18200000 
O      22.03600000      19.49500000      28.54100000 
C      23.53000000      17.91600000      25.93200000 
C      22.73100000      18.80800000      24.99500000 
C      21.31800000      19.11400000      25.47100000 
C      23.50800000      20.06200000      24.63600000 
H      24.98000000      16.62800000      27.34200000 
H      24.23700000      19.34500000      27.41700000 
H      24.49600000      17.76100000      25.48700000 
H      23.06700000      16.94600000      25.98600000 
H      22.63400000      18.22100000      24.08900000 
H      20.74100000      19.53900000      24.66100000 
H      20.82300000      18.20800000      25.80000000 
H      21.31700000      19.81300000      26.28900000 
H      22.90000000      20.74500000      24.05800000 
H      23.83700000      20.58000000      25.52100000 
H      24.38600000      19.80700000      24.05700000 
N      23.10500000      19.96200000      31.54100000 
C      23.56300000      21.32400000      31.47100000 
C      22.46500000      22.27300000      31.05900000 
O      22.27900000      23.33200000      31.67900000 
C      24.71600000      21.37000000      30.47300000 
C      25.38600000      22.70300000      30.41300000 
C      26.48700000      22.97400000      31.20900000 
C      24.92200000      23.68300000      29.55100000 
C      27.12000000      24.20100000      31.13800000 
C      25.55600000      24.90700000      29.47000000 
C      26.65900000      25.16800000      30.26300000 
H      23.49900000      19.31400000      30.89300000 
H      23.89500000      21.65200000      32.44100000 
H      25.42300000      20.61200000      30.76600000 
H      24.33500000      21.09200000      29.50400000 
H      26.85700000      22.21200000      31.86600000 
H      24.07900000      23.47700000      28.92900000 
H      27.98300000      24.39200000      31.74300000 
H      25.21300000      25.64800000      28.78200000 
H      27.16800000      26.10600000      30.18300000 
N      21.76500000      21.93200000      29.98100000 
C      20.66500000      22.72000000      29.50600000 
C      19.36700000      22.17700000      30.03700000 
O      19.25300000      21.01600000      30.44000000 
C      20.60900000      22.70200000      27.97600000 
C      21.80400000      23.36200000      27.36400000 
C      22.85000000      22.60800000      26.86300000 
C      21.89500000      24.74300000      27.29500000 
C      23.96500000      23.20800000      26.30800000 
C      23.00600000      25.35800000      26.75200000 
C      24.04400000      24.58500000      26.26800000 
O      25.18000000      25.15900000      25.74100000 
H      21.91800000      21.04600000      29.54700000 
H      20.79200000      23.73300000      29.84700000 
H      20.54500000      21.67400000      27.65300000 
H      19.70700000      23.20500000      27.66300000 
H      22.79300000      21.54500000      26.93700000 
H      21.09000000      25.34300000      27.66500000 
H      24.77700000      22.62200000      25.93400000 
H      23.07000000      26.42600000      26.69600000 
H      25.28700000      26.07900000      25.97200000 
N      20.64000000      23.57100000      15.96800000 
C      21.95400000      23.23200000      15.47600000 
C      21.80000000      22.25800000      14.33700000 
O      22.48700000      22.32600000      13.29700000 
C      22.86300000      22.67000000      16.56900000 
C      24.29600000      22.64800000      16.05800000 
C      22.79200000      23.50700000      17.83600000 
H      20.33200000      23.27600000      16.86800000 
H      22.40700000      24.11900000      15.06800000 
H      22.54000000      21.66300000      16.79600000 
H      24.94000000      22.18100000      16.78800000 
H      24.39100000      22.10600000      15.13000000 
H      24.63500000      23.66400000      15.90100000 
H      23.53200000      23.14700000      18.53800000 
H      23.01500000      24.54300000      17.61200000 
H      21.82600000      23.45700000      18.31100000 
H      29.07322337      14.30931209      12.84334103 
H      24.21156204      30.71842872      19.00509071 
H      23.44540275      30.98731293      21.84911271 
H      20.70599593      31.62678316      24.74478639 
H      24.78242474      29.73021687      30.54062841 
H      27.05692587      10.19630255      23.08304412 
H      27.70032988      10.09842619      25.99192394 
H      25.07195844      13.83541099      25.14578320 
H      25.60665140      14.50962562      29.87903630 
H      22.07499785      17.56550570      28.44539029 
H      23.28572478      19.62578388      32.35604434 
H      18.55718993      22.76262363      30.07239234 
H      20.55442332      24.46619685      16.00404494 
H      21.12672628      21.52103576      14.39688497 
