 344 
 
N               167.2371681882       73.8038900956       89.2531439760
C               167.4350755721       72.9334289684       90.3964928937
C               167.3871562305       73.7106870975       91.7178873259
O               166.8320828149       73.2318313644       92.6938355361
C               168.7099351731       72.1104520395       90.2541393297
C               168.4791838020       70.9998629537       89.2270720688
C               169.7618212369       70.2598412134       88.9052475704
O               170.4588453249       70.5782832521       87.9505483383
N               170.0659610124       69.2491096900       89.7153621467
H               167.9160441819       73.7936528247       88.5083086470
H               166.5746151710       72.2499193001       90.4585965786
H               169.5391796660       72.7528905624       89.9483199042
H               168.9649364215       71.6828457303       91.2258997250
H               167.7373653499       70.3005908492       89.6100432044
H               168.1042614916       71.4235640473       88.2951528829
H               169.5581229575       69.0616946281       90.5678326876
H               170.8496197872       68.6457736621       89.4997454215
N               167.9717880359       74.9115404511       91.7017681970
C               167.9162224656       75.8352523463       92.8156960465
C               166.4658989812       76.1204475078       93.2266442627
O               166.1087996416       76.0836841758       94.3994508508
C               168.6016618133       77.1364930892       92.3829004341
O               168.1347671271       77.4618226284       91.0876309246
H               168.3680138223       75.2713372486       90.8453841961
H               168.4163253848       75.3871224165       93.6849420332
H               168.3614127732       77.9182125608       93.1082914541
H               169.6874688851       76.9809561674       92.3614526902
H               168.2861077802       78.3991043890       90.9139950471
N               165.1002462986       73.2757293619       94.9463073314
C               165.6711730914       73.1858520084       96.2731967269
C               164.8674820925       74.0485470674       97.2366131763
O               164.5784256113       73.6606502314       98.3655109171
C               167.1223326706       73.6444211999       96.2743551769
C               168.0579192207       72.7258157416       95.4130283692
O               167.7979298618       71.5041848986       95.3966477107
O               168.9995196044       73.2949269642       94.8427961656
H               165.7438539077       73.4115696116       94.1736041463
H               165.6201473654       72.1483186317       96.6364440519
H               167.2002912793       74.6616583792       95.8911569960
H               167.5134827309       73.6183657728       97.2942668721
N               169.4999917737       65.8851783204       91.5357070260
C               170.8875681217       65.8932359407       91.9641708423
C               171.7269653628       66.8331135575       91.1006282590
O               171.6309963069       66.8390862418       89.8767974994
C               171.4416175504       64.4686648108       91.8660294450
C               170.7915522797       63.5841362965       92.9309003660
C               170.8315103698       62.0943329057       92.5932745398
C               170.0356708021       61.3577482801       93.6628600245
N               169.9182485858       59.9007467435       93.4007803678
H               169.1536370737       65.0467042494       91.0925919046
H               170.9138049444       66.2440363624       93.0004514710
H               171.2323885556       64.0977794876       90.8602611702
H               172.5250801465       64.5016072317       91.9858902030
H               171.2768013616       63.7615617753       93.8919699757
H               169.7532299941       63.8974491498       93.0524882833
H               170.3861055635       61.9411616124       91.6096189702
H               171.8661217018       61.7567337032       92.5672045599
H               170.5046130721       61.5120773502       94.6347651035
H               169.0290098085       61.7739284742       93.7109534650
H               169.2168661382       59.5381171340       94.0793743635
H               169.5827258927       59.7378145176       92.4416226355
H               170.8246037476       59.4312562801       93.5235025645
N               172.5906834949       67.6113705817       91.7630686855
C               173.6701847229       68.2664018655       91.0588240476
C               174.6296544664       67.1999166041       90.5113383978
O               174.8167313853       66.1391066088       91.0911971961
C               174.4823707155       69.1652142525       92.0041978967
C               173.8736602857       70.5291834912       92.1666482098
C               172.9252216779       70.7870817248       93.1501820096
C               174.2545102607       71.5656385258       91.3250753437
C               172.3760056002       72.0467780030       93.2973811490
C               173.7334731563       72.8358649643       91.4774936728
C               172.7883264394       73.0859517003       92.4661668584
O               172.2674344237       74.3250035926       92.6566254426
H               172.6671347753       67.5688400131       92.7742961491
H               173.2681070476       68.8538130096       90.2248006981
H               174.5471556488       68.6667578444       92.9727836578
H               175.4888957301       69.2640295858       91.5894603909
H               172.6183376919       69.9874765923       93.8084768977
H               174.9763973642       71.3854985258       90.5423106621
H               171.6082492049       72.2493686513       94.0301529481
H               174.0613892479       73.6350274121       90.8256729506
H               172.6084717389       74.9222079881       91.9757704012
N               175.2545632857       67.5427562284       89.3793237991
C               176.4434949131       66.8330217801       88.9410668574
C               177.5861712733       67.3087818240       89.8518625542
O               177.6634324371       68.4825713558       90.2024436029
C               176.6958916785       67.1368911992       87.4656432376
C               177.9049408661       66.3979849069       86.8961050231
C               178.0645553687       66.7127270984       85.4077120001
C               179.2613553930       65.9721365942       84.8203897243
N               179.4104078619       66.2935671674       83.3738209947
H               175.1246374484       68.4720497023       88.9933173911
H               176.2675382887       65.7647599364       89.1028290444
H               175.7937483003       66.8612777971       86.9173519851
H               176.8201527663       68.2170825250       87.3649353059
H               178.8043478984       66.6931040117       87.4393564647
H               177.7637131776       65.3251510109       87.0304758766
H               177.1472411585       66.4212182926       84.8945985384
H               178.1878577694       67.7902791586       85.2918558663
H               180.1711543464       66.2616684848       85.3474605236
H               179.1203488268       64.8968715616       84.9323200278
H               180.2116280828       65.7883464939       82.9682431700
H               178.5532118534       66.0291431237       82.8645556777
H               179.5584359909       67.3066157551       83.2511010900
N               178.4338459892       66.3628095879       90.2682051029
C               179.4583349342       66.6074383708       91.2599772005
C               180.8357261900       66.4918832568       90.6007905690
O               181.0588620807       65.7047319657       89.6940753450
C               179.3155598708       65.6024389538       92.4223767098
C               180.3890244636       65.8355049700       93.4812344726
C               177.9295614916       65.7254709379       93.0532293351
H               178.3610505738       65.4154051484       89.9295129726
H               179.3163913706       67.6288196420       91.6270951793
H               179.4408576200       64.5947775918       92.0116708079
H               180.2247088850       65.1709999791       94.3255165004
H               181.3862735502       65.6381368238       93.0939853437
H               180.3507717916       66.8605299882       93.8434067753
H               177.8138309218       64.9847761658       93.8397583326
H               177.8143706235       66.7114281610       93.4959599306
H               177.1338020188       65.5800988300       92.3262926295
N               185.1790698848       71.3929618612       96.1265077879
C               184.0859110709       70.8144296858       95.3731969966
C               183.5105120472       71.8297326018       94.3762048677
O               183.6157571343       73.0356211003       94.5603175734
C               182.9596597731       70.3841077431       96.3162613040
C               183.3975583214       69.3528029048       97.3502782926
S               184.1342325123       67.8428431996       96.6243700224
C               182.6944631907       67.2040553106       95.7267608105
H               184.9862159681       71.7536116782       97.0535524834
H               184.4668483261       69.9441732650       94.8266975514
H               182.5967248858       71.2686951046       96.8449245423
H               182.1456563898       69.9803432997       95.7122849829
H               184.1665679340       69.7542912994       98.0091585796
H               182.5433953607       69.0316916919       97.9457425832
H               182.8895596786       66.1543790329       95.5298928120
H               181.8102493874       67.3068916611       96.3470368934
H               182.5864256980       67.7354321389       94.7856614797
N               182.8442326261       71.3011113451       93.3490013725
C               182.0720815927       72.1073697034       92.4280045914
C               180.8399643871       71.3061664772       91.9956218686
O               180.9268964288       70.1143141231       91.7125824200
C               182.8624561024       72.4819950908       91.1628098960
O               183.9024761917       73.3796332317       91.4867206115
H               182.8932790977       70.3045289860       93.1496999554
H               181.7735231439       73.0235629916       92.9475690520
H               183.2687253217       71.5697007393       90.7106746709
H               182.1617493107       72.9510508861       90.4597341331
H               184.3208868924       73.6428388717       90.6564947568
N               179.7156165734       72.0087434819       91.9104212555
C               178.4422189094       71.4090870449       91.5734554037
C               177.8809761762       72.1074716591       90.3330742310
O               177.8650601419       73.3320147341       90.2505695924
C               177.4712276848       71.5817644327       92.7564676646
C               178.0549095638       70.9866026331       94.0049718039
C               178.7743184801       71.7709875131       94.8964168759
C               177.9178371385       69.6297175100       94.2728919983
C               179.3233304892       71.2178417999       96.0379447278
C               178.4695765773       69.0637781813       95.4058054814
C               179.1740922409       69.8623421099       96.3028588371
O               179.6965488318       69.2882192391       97.4206715815
H               179.6966491713       72.9827355360       92.2005071719
H               178.6210985021       70.3507667258       91.3671064231
H               177.2951628017       72.6488720754       92.8936356917
H               176.5243043740       71.1049255062       92.5085975299
H               178.9114360813       72.8248615220       94.7033079781
H               177.3598636701       69.0150755124       93.5822156413
H               179.8670422488       71.8490632029       96.7254226965
H               178.3536682514       68.0122680735       95.6200472363
H               180.0549332095       69.9753103806       97.9989721498
N               177.4193761415       71.2978310540       89.3800641620
C               176.9214917119       71.7819441613       88.1101109499
C               175.4705345137       71.3397666148       87.9245636302
O               175.1337111832       70.1749952791       88.1174094650
C               177.7773759409       71.2372671777       86.9514410911
O               179.1190156692       71.5716994102       87.2343666998
C               177.3064876681       71.8161433634       85.6192728054
H               177.4494154044       70.2933124206       89.5242171929
H               176.9834736579       72.8719982815       88.1247504174
H               177.6687895389       70.1402048712       86.9451278936
H               179.6779632282       71.2486900153       86.5142685197
H               177.9208847604       71.4460474608       84.8030169576
H               176.2686697234       71.5524925179       85.4299135469
H               177.3831978063       72.9015506942       85.6420843746
N               174.6244626207       72.3030421069       87.5700764870
C               173.2200464673       72.0520005670       87.3460355996
C               172.9051367405       71.9241457700       85.8526613749
O               173.7548551504       72.0526050099       84.9752077126
C               172.3769905709       73.1442258039       87.9982295109
C               172.6680359719       74.5478692353       87.3919804586
O               172.8095930654       74.6095397153       86.1478114212
O               172.7160875741       75.4990998169       88.1835173847
H               174.9710333665       73.2382058854       87.3878857060
H               172.9864915503       71.0831102248       87.8052096701
H               171.3196217346       72.9268370222       87.8482682437
H               172.5760978000       73.1721986289       89.0700878990
N               175.2599484824       75.9854648826       85.1061490430
C               175.8531557517       76.8176886005       86.1357260875
C               176.6403440533       75.9197834346       87.0943874197
O               176.2211666593       74.8254097875       87.4533695567
C               174.7817559417       77.6290465625       86.8614777965
C               175.3817798879       78.6178533272       87.8595291730
C               174.2797367882       79.4128501332       88.5601584692
C               174.8718026798       80.3521384532       89.6064477246
N               173.7952598083       81.1251111975       90.2842928877
H               174.3308716745       75.6092936360       85.2832592338
H               176.5592212110       77.4870896441       85.6285599291
H               174.2082736340       78.1636876797       86.1018066178
H               174.1026227492       76.9413862111       87.3713445663
H               175.9672717853       78.0690162321       88.5991008042
H               176.0548717750       79.2962877781       87.3328444581
H               173.7301525415       79.9761504694       87.8062168357
H               173.5939375171       78.7009890717       89.0219448862
H               175.4159784860       79.7723600527       90.3524694869
H               175.5645921898       81.0461436265       89.1297060182
H               174.1902561556       81.7450640919       91.0067646865
H               173.2811969836       81.6995687292       89.5940140604
H               173.1257123554       80.4775131914       90.7262694691
N               177.7929846850       76.4501047415       87.5172759649
C               178.7575273222       75.7732135930       88.3551441577
C               178.9786203932       76.6088720754       89.6160589733
O               179.4003446288       77.7610637041       89.5372609179
C               180.1101997190       75.6802154217       87.6021062237
O               180.5040028617       76.9524020797       87.1497829454
C               180.0063277698       74.7355334418       86.4127142010
H               178.1548393283       77.2816177338       87.0685486726
H               178.3799580960       74.7804902420       88.6036749396
H               180.8575717607       75.2856308736       88.3146488587
H               180.4149552390       77.5779942718       87.8929123544
H               180.9589078148       74.7081147825       85.8931533490
H               179.7492788926       73.7420224258       86.7673183391
H               179.2447134050       75.0835098297       85.7175007106
N               178.6913381201       76.0010846653       90.7647536806
C               178.9188643667       76.6381902762       92.0432335988
C               179.9483479984       75.8479270942       92.8495826532
O               179.8857433650       74.6274906783       92.9988059668
C               177.6033739944       76.8220486068       92.8379798339
C               176.8961910177       75.4815425352       93.0634567128
C               176.7119371818       77.8217382094       92.1029234777
C               175.7148108500       75.5781795861       94.0224756960
H               178.3871902405       75.0312877919       90.7636666909
H               179.3452064294       77.6235830703       91.8238370068
H               177.8892819470       77.2349180195       93.8121573218
H               176.5557715559       75.0817465018       92.1051711708
H               177.6259645983       74.7836046635       93.4757758598
H               175.8564910355       78.0754818271       92.7203103103
H               177.2787450819       78.7234573578       91.8836251116
H               176.3676591235       77.3839857702       91.1674140665
H               175.2951312878       74.5885615097       94.1873477876
H               176.0378093637       75.9866193925       94.9765892095
H               174.9322387629       76.2096385419       93.6147891831
N               180.9095458530       76.5870114660       93.3918375938
C               181.9346498189       76.0384829677       94.2519018076
C               181.3267282855       75.6112527555       95.5927948059
O               180.3423071519       76.1590026797       96.0689693031
C               182.9735332370       77.1212237958       94.5555040633
C               183.4258992203       77.7974604814       93.2289018744
O               184.5203380551       77.4315442032       92.7456839124
O               182.6517621566       78.6336339188       92.7387115546
H               181.0113141628       77.5730318244       93.1710547307
H               182.4064694883       75.1758392517       93.7653149402
H               182.5145216292       77.8889305652       95.1823960882
H               183.8203912867       76.6839306662       95.0813231809
N               181.9997368808       74.6248338930       96.1961544522
C               181.7817652013       74.2527641392       97.5686859444
C               183.0374828131       74.5238345593       98.4070518291
O               183.9941895141       75.1349201312       97.9730940056
H               182.7967768684       74.2041066463       95.7262650366
H               180.9494788650       74.8550916212       97.9459888092
H               181.5208351439       73.1915949478       97.6334820152
N               179.0604154979       63.5778787218      101.7096048344
C               178.2194149917       64.3936170618      100.8527111387
C               177.3687601640       63.4815256092       99.9556950864
O               177.8235608007       62.4723598138       99.4391127120
C               179.0564504998       65.3288460820       99.9791474498
C               179.8046647497       66.4069854763      100.7738453369
C               180.7917952566       67.1299104931       99.8591098344
C               178.8453050467       67.4231557500      101.3909016655
H               179.9487084647       63.2425188976      101.3491096107
H               177.5438594119       64.9626189397      101.4978354338
H               179.7786446199       64.7203496953       99.4310627994
H               178.3968424402       65.8013193517       99.2477952771
H               180.3623757156       65.9224460163      101.5844057359
H               181.3168991733       67.9000463911      100.4194961575
H               181.5236762738       66.4362840129       99.4551454181
H               180.2574601733       67.5965294577       99.0349579464
H               179.3987779536       68.2000512936      101.9149050902
H               178.2385775353       67.9019304739      100.6248235796
H               178.1705178572       66.9634831533      102.1103965263
N               170.0053334773       66.3885598473       96.4530858608
C               170.7131882704       67.4411956288       95.7653543571
C               172.1917637216       67.1116716393       95.5305693132
O               172.8110853282       67.6739365744       94.6329011198
C               170.5987235697       68.7932063295       96.4775459897
C               171.3618380297       68.8486290129       97.8216762821
O               171.5969762767       69.9770108071       98.2940467903
O               171.6970504870       67.7648800421       98.3461199785
H               170.1481747855       66.3325869949       97.4519480771
H               170.2525073586       67.5391161137       94.7732059818
H               170.9688894879       69.5849703132       95.8235529446
H               169.5471685981       69.0139554044       96.6780270070
N               172.7511827583       66.1832416167       96.3105254544
C               174.1091809441       65.7400290658       96.1407676566
C               175.1310289767       66.3018473084       97.1317843679
O               176.2416778210       65.8043562972       97.2204728413
H               172.2639142792       65.8666093603       97.1352455256
H               174.1376309027       64.6492322150       96.1907023957
H               174.4369535666       66.0510243212       95.1428845098
N               174.7421678387       67.3871090435       97.8145077572
C               175.6268029578       68.1229724206       98.6854742016
C               175.0825568159       68.2589714124      100.1122240592
O               175.5682181368       69.0565705556      100.9042918859
C               175.9582736062       69.5137032368       98.1241665549
C               174.6996785860       70.2882929291       97.7354197283
C               174.9765862937       71.7883307458       97.6542025730
C               173.7831055278       72.5765484264       97.1304594683
N               172.6190512625       72.4822735268       98.0509578825
H               173.7733163085       67.6746516650       97.7890701099
H               176.5541459192       67.5378638303       98.7597190192
H               176.4893902497       70.0480862986       98.9132976485
H               176.6161584538       69.4146625722       97.2609872719
H               174.3360195555       69.9338763190       96.7683114430
H               173.9271626022       70.0895618520       98.4800250291
H               175.2635354461       72.1523982737       98.6418891479
H               175.8160601661       71.9561395133       96.9790788416
H               174.0568222678       73.6271508109       97.0265501816
H               173.4798307130       72.1927547779       96.1552353276
H               171.8622896760       73.0975874785       97.7346501443
H               172.2297741830       71.4995062019       98.0907111522
H               172.8941586366       72.7455687424       99.0050073388
H               166.4582916706       73.5994773303       88.8511902576
H               165.7835723043       76.3434288689       92.5304333618
H               164.6558950321       72.5159767834       94.7583499655
H               164.5600027428       74.9578191273       96.9561122486
H               168.9650043652       66.0159370405       92.2475290753
H               181.5886241813       67.0725125668       90.9106521818
H               185.8206774767       70.7737311167       96.2485445983
H               171.9714299577       71.7272475560       85.5536250278
H               175.1833742029       76.4586913388       84.3444449660
H               183.0905401424       74.1932663810       99.3493413808
H               179.2772037889       64.0432804425      102.4487963355
H               176.4106201216       63.7067648579       99.7789609922
H               169.1195068218       66.4954102513       96.3352125074
H               174.3165664659       67.6900429808      100.4115219435
