 415 
 
N               209.5334144382       66.6962335758      122.2909305861
C               210.9206212869       66.6368194784      121.8804614669
C               211.7686293817       66.1740633796      123.0719637499
O               211.6309098582       66.6863752699      124.1764894411
C               211.4124167157       68.0303765819      121.4636465031
C               210.5626922930       68.6704387306      120.3588059220
C               210.8849076151       70.1601588948      120.2614793017
C               210.7910458765       67.9905500302      119.0129458140
H               209.3171143684       67.3703987183      123.0112437265
H               211.0005034226       65.9224765549      121.0589314615
H               211.3816214218       68.6678795301      122.3507628976
H               212.4472992976       67.9372783159      121.1301647457
H               209.5060406791       68.5718344974      120.6326648239
H               210.2650731930       70.6355227322      119.5045609819
H               210.6891629184       70.6641789299      121.2051873898
H               211.9304526566       70.3058965837      120.0017061826
H               210.1833263668       68.4802851204      118.2566712505
H               211.8384856420       68.0587563817      118.7298771658
H               210.5156386870       66.9405234039      119.0601216450
N               215.4577112198       66.2890244999      124.0000184024
C               216.7410209493       66.8511315883      123.6547567088
C               217.9418159151       66.1383799334      124.2872578742
O               219.0794301693       66.4549503897      123.9527882040
C               216.7809470648       68.3536932966      123.9616665792
C               215.9876565732       69.0910365964      122.8917417017
O               216.5040879649       69.4582174406      121.8468975992
N               214.6964018698       69.3089142007      123.1739417967
H               215.0248002863       66.5678653214      124.8683817601
H               216.8616935628       66.7063701726      122.5721276934
H               216.3850097610       68.5436795119      124.9580744088
H               217.8217795646       68.6759247800      123.9097399327
H               214.1054612058       69.7024249108      122.4568029926
H               214.2442901148       68.8907227487      123.9691200578
N               221.6290957663       72.6955392061      123.6212342814
C               220.7435073847       73.5595708708      122.8759315014
C               220.1234037527       74.5784187748      123.8324761492
O               219.7255239997       74.2604789831      124.9481167330
C               219.6574294684       72.7282380983      122.1681305472
C               220.3277019982       71.7873334723      121.1584668514
C               218.6383989167       73.6635727442      121.5240340792
C               219.3663795482       70.8229175453      120.4757206423
H               221.1688157576       72.0550868160      124.2506751107
H               221.3452734211       74.0941492583      122.1361369754
H               219.1429560864       72.1257843708      122.9257231951
H               220.8402416531       72.3870955426      120.4033610501
H               221.0930258713       71.2068571603      121.6790310683
H               217.9618516496       73.1086848045      120.8831929507
H               218.0333727618       74.1641937057      122.2769818951
H               219.1457174314       74.4264616767      120.9381445015
H               219.9372131172       70.0822237861      119.9217041532
H               218.7446688462       70.3122231000      121.2062552143
H               218.7122995147       71.3434306312      119.7829063133
N               214.0208757091       76.6928229716      122.7456998978
C               213.1683192743       75.8271660482      121.9588325047
C               213.8446932015       75.6204947650      120.6056122537
O               214.7445360363       76.3572790542      120.2111508082
C               211.7798075191       76.4284441136      121.7735043135
C               210.9476483119       76.4909322499      123.0870308124
O               211.5145499270       76.3390241679      124.1717683356
O               209.7185352723       76.7113013809      122.9287504383
H               213.6421869436       77.5700471451      123.0624697076
H               213.0907757602       74.8541160886      122.4627886538
H               211.8602519074       77.4448718009      121.3753767882
H               211.2081916181       75.8423990929      121.0521544597
N               213.4359292806       74.5645426101      119.9001290293
C               213.9804493007       74.3263257558      118.5790283725
C               213.2931830444       75.2570565862      117.5755378278
O               212.0993737331       75.5333533277      117.6480580270
C               213.8289349736       72.8639476470      118.1643392951
C               214.9249192846       71.9551438134      118.7348539249
C               214.9583731634       71.9870107617      120.2609061992
C               214.6983083009       70.5302178587      118.2353477411
H               212.5933933767       74.0809846048      120.1765025158
H               215.0406400474       74.5953547361      118.6270914430
H               212.8494225167       72.5076983810      118.4874078439
H               213.8662810133       72.8149372071      117.0748474436
H               215.8898349997       72.3093750029      118.3588734378
H               215.6606400943       71.2470871360      120.6382140746
H               215.2584087711       72.9628870517      120.6329262929
H               213.9731351481       71.7656951017      120.6675762428
H               215.4707955476       69.8702893034      118.6167528128
H               213.7348637802       70.1612226931      118.5777474038
H               214.7129050063       70.4919251445      117.1495760277
N               214.0990962479       75.7367156629      116.6254190304
C               213.6390694859       76.6783106107      115.6219562009
C               213.2551514159       75.8611680768      114.3807038269
O               214.0689963152       75.5725627614      113.5074966838
C               214.7164644335       77.7228756054      115.3316319597
C               214.9217073015       78.7243931257      116.4731681293
C               215.7662992231       78.2087872999      117.6425365225
C               215.7426763086       79.2184377290      118.7885874626
N               216.2732993944       78.6157300123      120.0418025140
H               215.0536225115       75.3927576169      116.5124748423
H               212.7342770385       77.1666892150      116.0028338402
H               215.6478210751       77.2067537435      115.0935412061
H               214.3823282076       78.2800352537      114.4547172036
H               215.3848636231       79.6165213393      116.0497922247
H               213.9393187863       79.0229889471      116.8469568410
H               215.3294744696       77.2821372085      118.0083839620
H               216.7835714135       78.0214587832      117.2948002490
H               216.3193029042       80.1084049468      118.5398383174
H               214.7032401919       79.5072493960      118.9576066783
H               216.2270594277       79.2846069135      120.8191763188
H               215.6718399824       77.7892204845      120.2908449219
H               217.2400615689       78.2914666136      119.9212201559
N               212.0145550713       75.3567767443      114.4085648625
C               211.4590188330       74.6408214333      113.2769765361
C               211.2646881457       75.6008758328      112.0978246367
O               211.0030751019       76.7932489824      112.2595497495
C               210.1351154433       73.9886335721      113.6925691931
C               209.4114953693       73.3216417791      112.5557889037
C               209.6718620511       71.9933363544      112.2419245473
C               208.4473979746       74.0041458794      111.8221061561
C               208.9609377811       71.3473812636      111.2467114465
C               207.7347620035       73.3612419537      110.8241861898
C               207.9793177276       72.0271715461      110.5445375034
H               211.3355670773       75.7493413811      115.0529256852
H               212.1738212834       73.8728439784      112.9587704470
H               210.3639889307       73.2527368281      114.4653114921
H               209.5051490938       74.7634091155      114.1346724041
H               210.4374936129       71.4619336776      112.7865443050
H               208.2473458658       75.0489274126      112.0354106722
H               209.1834293114       70.3160990369      111.0204881435
H               206.9878295911       73.9101305360      110.2655199422
H               207.4014851681       71.5345603545      109.7775490513
N               210.6323978531       71.9218759582      106.8219551500
C               210.3838867497       70.9349836556      107.8397604592
C               211.6020210340       70.5977063646      108.7054835063
O               211.5240810539       69.7660508451      109.5963753417
H               210.5545491241       72.8846804835      107.1202096085
H               209.5978650857       71.2984816063      108.5045481683
H               210.0608214337       70.0073020437      107.3586573530
N               212.7403656397       71.2168191638      108.3729204981
C               213.9538300504       71.0505936513      109.1402238453
C               213.8336031506       71.7414011657      110.5016269018
O               212.9459619283       72.5455013174      110.7597268162
C               215.1247768277       71.6375329243      108.3516043560
C               215.4776478633       70.7873060316      107.1327032344
C               216.4460465829       71.5540582408      106.2352487296
C               217.0091367715       70.7346277848      105.0818978326
N               217.7792485692       69.5657867305      105.5714641156
H               212.7290206333       71.9715847855      107.6953398224
H               214.0927102432       69.9769497807      109.3190241076
H               214.8443422919       72.6417977411      108.0261611517
H               215.9989142899       71.7348982887      108.9988092308
H               215.9283988117       69.8601466792      107.4873093606
H               214.5637177859       70.5528549159      106.5847373544
H               215.9288561624       72.4233950791      105.8291179536
H               217.2675842194       71.9319407258      106.8415414636
H               216.1993614669       70.3946296577      104.4348088588
H               217.6803724648       71.3758094332      104.5116516566
H               218.4962656351       69.2872390421      104.8996366948
H               218.2788425925       69.7814433452      106.5553159479
H               217.1628263318       68.7704086731      105.7508577242
N               214.7876751948       71.3990561731      111.3772391387
C               214.9215594384       72.0256543334      112.6667044222
C               216.3221239824       72.6146254050      112.8032887974
O               217.3079081781       72.0484196966      112.3448838670
C               214.7772597629       70.9943277881      113.8060896554
C               213.4512068305       70.2936005765      113.8130813028
C               213.1994207131       69.2705711591      112.9060810554
C               212.4728661248       70.6136097441      114.7434522798
C               212.0104308667       68.5722689079      112.9289423675
C               211.2861205181       69.9027966124      114.7935196248
C               211.0561266638       68.8734690867      113.8917308584
O               209.9085788057       68.1281101018      113.9309823882
H               215.5354588995       70.7644970510      111.1341473171
H               214.1622641683       72.8090829807      112.7368999036
H               215.5704579865       70.2573993372      113.6606038189
H               214.9408512039       71.5105806593      114.7532096797
H               213.9582655918       69.0063755867      112.1877598879
H               212.6415283546       71.4089154090      115.4540277691
H               211.8289761188       67.7941119433      112.2090719723
H               210.5494038519       70.1470800343      115.5464059768
H               209.3648890081       68.4184891426      114.6752293223
N               216.3815657025       73.7200239566      113.5505764479
C               217.6277710868       74.3856689946      113.8458421221
C               217.7030597749       74.6639902720      115.3434258389
O               216.7153736843       74.8076208983      116.0468452741
C               217.7477958753       75.7091318174      113.0595064176
C               217.8407734657       75.3855746788      111.5980646406
C               216.6940599563       75.3024648206      110.8195683112
C               219.0633215397       75.0551529363      111.0283802955
C               216.7591271926       74.8802447871      109.5065697877
C               219.1362791843       74.6165702223      109.7230958359
C               217.9815201616       74.5036292020      108.9564363612
O               218.0206818770       74.0477686418      107.6785758318
H               215.5407789953       74.2681365579      113.7071528033
H               218.4313185836       73.7048809967      113.5437619095
H               216.8587621235       76.3102995090      113.2503619086
H               218.6364397974       76.2465281987      113.3903262718
H               215.7340107562       75.5587325373      111.2452366040
H               219.9683068258       75.1419668973      111.6115759291
H               215.8682351218       74.8233154384      108.8980057652
H               220.0806521284       74.3427884391      109.2787276142
H               218.8004506110       73.4627707787      107.5716954029
N               218.9486530589       74.7852203651      115.8114244586
C               219.2078539857       74.9771761415      117.2198924218
C               220.3810106262       75.9361234554      117.3993174805
O               221.3736695512       75.8641512525      116.6916543858
C               219.5771964094       73.6455262063      117.8818571807
H               219.7370263936       74.5555946713      115.2190213050
H               218.2847574048       75.3732575759      117.6530824155
H               219.8304827469       73.7930440054      118.9265790215
H               218.7391368370       72.9595539500      117.7993610879
H               220.4354209473       73.2097641405      117.3755529569
N               221.9221071988       72.5456808376      112.2330030671
C               220.7286273163       71.7900081377      111.9128718077
C               220.6576274331       70.5478704389      112.8046214804
O               221.6689724307       69.9011783044      113.0736466465
C               220.7483480440       71.3870094997      110.4392818822
C               219.4063491495       70.8419691881      109.9746246573
C               219.2898591354       70.8499993823      108.4413961657
O               218.7817027991       69.8144116757      107.9334191861
O               219.6590416148       71.8456276811      107.8046867848
H               222.7933824987       72.1905145404      111.8695932991
H               219.8662882309       72.4335096878      112.1084990125
H               220.9811868679       72.2696906680      109.8398432626
H               221.5370383816       70.6475427990      110.2737130424
H               219.2255084491       69.8272617982      110.3319920750
H               218.6036011057       71.4831512706      110.3507988195
N               219.4443021290       70.2451592005      113.2608293646
C               219.1890812995       69.0593043395      114.0476883078
C               218.0241311644       68.2960483153      113.4207543540
O               217.1283831709       68.8493611509      112.7975370657
C               218.9456811179       69.3781057440      115.5427155124
C               220.1210852207       70.1853318535      116.0889982796
C               217.6405597889       70.1267809318      115.7845202831
H               218.6306301798       70.7629475905      112.9412338326
H               220.0816563637       68.4285026333      113.9951666824
H               218.9044358406       68.4106367037      116.0526421466
H               220.0270165961       70.3033437073      117.1644695510
H               221.0613129673       69.6858427005      115.8708717806
H               220.1462912312       71.1697592488      115.6259061329
H               217.5511000571       70.3699081807      116.8393727896
H               217.6171680146       71.0513037451      115.2116114908
H               216.7858982539       69.5183034035      115.5008374996
N               218.1151087075       66.9677123981      113.5614661043
C               217.0778223684       66.0643147229      113.1290398290
C               216.2914248252       65.5637230855      114.3531543874
O               216.7520304091       65.6298590792      115.4820899260
C               217.6924501077       64.8927484484      112.3451933681
O               218.7321568425       64.3172689110      113.1076392302
H               218.8139607084       66.5719468365      114.1833851803
H               216.4024431763       66.6256959184      112.4743463852
H               216.9077719806       64.1583036267      112.1316268783
H               218.0964664999       65.2769696100      111.3990165385
H               218.9729576881       63.4699579877      112.7148310424
N               215.0667512425       65.1073934612      114.0664725573
C               214.1456869977       64.6280321848      115.0762386689
C               213.6073083088       63.2648046201      114.6388195521
O               213.1853875527       63.0783544948      113.5055198370
C               212.9906910577       65.6377349097      115.2572041537
C               211.9858504598       65.1168219452      116.2795453486
C               213.5485910979       66.9847234871      115.7084556068
H               214.7459636931       65.0194227510      113.1127397105
H               214.6923873046       64.5265056445      116.0144552029
H               212.5005040961       65.7552539901      114.2859739100
H               211.1872653165       65.8386289592      116.4234396293
H               211.5549494568       64.1671370468      115.9716184687
H               212.4741690162       64.9542372261      117.2390905862
H               212.7423940385       67.6936211765      115.8676248231
H               214.0903172266       66.8613846218      116.6428669206
H               214.2305569916       67.3994830320      114.9709904658
N               213.6685964117       62.3184358511      115.5838986198
C               213.0103813387       61.0318551108      115.4624684468
C               211.5142311560       61.3233803772      115.6272600363
O               211.0554392365       61.8012484718      116.6604006932
C               213.5264403021       60.0832821577      116.5313634889
C               212.7056221203       58.7697283966      116.5755305644
O               213.3027568536       57.6989527771      116.7333773909
O               211.4640694541       58.9065661548      116.4339344558
H               213.9561724709       62.5855281547      116.5156629318
H               213.2104430145       60.6309949233      114.4616237507
H               214.5835012460       59.8515357669      116.3912154092
H               213.3959184791       60.5381456836      117.5173359649
N               210.7780335348       61.2523884146      114.5085206988
C               209.4000281112       61.7025628941      114.4855580763
C               208.4573659059       60.8210850504      115.3195653665
O               207.3460711742       61.2305598958      115.6267212335
C               208.8678145723       61.8052390372      113.0456975453
C               208.7568064452       63.2383759518      112.5235169990
C               210.1016105758       63.9713188115      112.4677386520
C               210.0765477762       65.1263447202      111.4733020646
N               209.1541037419       66.2141052427      111.9092038059
H               211.1545541043       60.8090784056      113.6852086593
H               209.3742744365       62.6825504802      114.9785819740
H               209.5193778839       61.2204985977      112.3953557281
H               207.8773821850       61.3476731690      113.0177011000
H               208.3430897659       63.1677517303      111.5161644211
H               208.0468377495       63.7649358118      113.1627952311
H               210.3955167026       64.3183532139      113.4584978629
H               210.8815642804       63.2781473846      112.1522012203
H               211.0816508251       65.5320849342      111.3657086748
H               209.7390035606       64.7532968946      110.5058053597
H               209.0409536370       66.9141384054      111.1625220790
H               208.2320208168       65.8130136454      112.1312985104
H               209.5139392047       66.7062340582      112.7545324367
N               210.4039277388       61.5899837987      119.2906778214
C               210.8333501638       62.9456387973      119.4833439563
C               212.2850238726       63.2011988792      119.8557041621
O               212.6372229153       64.3473915485      120.1500201849
H               210.4635403901       61.2323345513      118.3440421406
H               210.6689730623       63.4732781795      118.5405667422
H               210.2150573588       63.4225769465      120.2529413692
N               213.1512349862       62.1919929244      119.8203291057
C               214.5542144076       62.4287531458      120.1106005002
C               215.1342032434       63.4316510248      119.1103080056
O               214.7429383689       63.4923165895      117.9494995298
C               215.3722614309       61.1443298312      120.0202342976
C               215.0608551060       60.1629972284      121.1384001510
C               215.8369035212       58.8318158688      120.9283015738
O               215.2342760674       57.7727400862      121.2192830717
O               217.0025854884       58.8998393705      120.5053633162
H               212.8404206089       61.2444209351      119.6422088543
H               214.6591320171       62.8531951336      121.1178354360
H               215.1807477541       60.6578786421      119.0591481501
H               216.4346480858       61.3930095134      120.0676635265
H               215.3588083159       60.5760733084      122.1079545700
H               213.9950941270       59.9378564093      121.1771184409
N               216.1239732729       64.1795409724      119.5938991254
C               216.8275111543       65.2019557389      118.8438005797
C               218.3036711204       64.8290988706      118.7078004757
O               218.9809713330       64.5024356613      119.6850374507
C               216.7445061029       66.5496301502      119.5902910366
C               217.5598034271       67.6316018311      118.8877947821
C               215.2924412068       66.9860384471      119.7470436162
H               216.3491633868       64.0933636816      120.5758442635
H               216.3614761334       65.2692083216      117.8570872919
H               217.1737626976       66.3722992335      120.5841788909
H               217.4625361125       68.5619901068      119.4416485777
H               218.6118442037       67.3610920009      118.8545352407
H               217.2012888832       67.7721007422      117.8715050641
H               215.2530699455       67.9040154505      120.3266967594
H               214.8474435565       67.1632394937      118.7711872201
H               214.7060312726       66.2203374010      120.2522879842
N               209.6798931669       78.5561571709      116.8810165060
C               210.0247358493       77.9565457053      118.1602891607
C               208.9582285400       76.9080972971      118.4863093353
O               207.7663931813       77.2022390838      118.5021913953
C               210.0446884153       79.0021761975      119.2591266834
C               211.3713634850       79.8405752375      119.2708447460
O               212.4115899619       79.2508587781      118.9419262106
O               211.2699708380       81.0191979516      119.6513083487
H               209.4704042592       79.5442526730      116.8353036095
H               211.0127536725       77.4862192906      118.0841688399
H               209.1872763640       79.6718552602      119.1689355270
H               209.9767690781       78.5041114842      120.2322241939
N               209.4303903546       75.6965968690      118.7899887347
C               208.5606542653       74.5772165302      119.0599211510
C               208.9799527200       73.8445533729      120.3342223308
O               210.1451658742       73.6005857413      120.6066476352
C               208.5510502147       73.5483475374      117.9011967845
C               207.8065597313       74.1178004414      116.6991283213
C               209.9669647009       73.1364641435      117.5128609239
H               210.4039213750       75.4976203131      118.5961748424
H               207.5547435678       74.9981935280      119.1712093521
H               208.0073952384       72.6637117075      118.2485494596
H               207.8319068687       73.4099438962      115.8762956382
H               206.7635650917       74.3206341438      116.9386113216
H               208.2667598423       75.0486126691      116.3753081464
H               209.9207694600       72.2769621118      116.8516184590
H               210.4630221677       73.9584065357      117.0037973893
H               210.5353230874       72.8722369963      118.4009015540
N               206.3604998793       68.5243269023      118.0404137558
C               206.5361286104       68.3066331820      116.6176595638
C               205.3353888685       68.8905932659      115.8635061153
O               204.2043588525       68.8310247141      116.3390711039
C               206.6859826078       66.7971526477      116.3417103247
C               206.8324574960       66.4764303936      114.8557764191
C               207.8917197589       66.2548457542      117.1091871890
H               205.9779504754       67.7880621768      118.6255070199
H               207.4382939106       68.8608281366      116.3326661050
H               205.7761354090       66.3217888935      116.7186122638
H               206.9084077651       65.3968612568      114.7609845231
H               205.9764647693       66.8194690933      114.2826633320
H               207.7325897017       66.9383504259      114.4654596625
H               207.9831029834       65.1835648596      116.9582239765
H               208.8086964953       66.7333931798      116.7749956977
H               207.7984196045       66.4289806367      118.1781258983
N               205.6052941575       69.3962715818      114.6591305886
C               204.6281234861       69.9090294677      113.7185018196
C               204.3857655378       68.8381568334      112.6344073239
O               205.2951434215       68.0994092344      112.2927313806
C               205.1965026905       71.1430963321      113.0019685711
C               205.5637872573       72.2902347788      113.9473475052
C               204.3642609861       72.9975054254      114.5480984783
O               204.1791199803       73.0623332964      115.7540145497
N               203.5076587327       73.5384317470      113.6585283955
H               206.5529065891       69.3788863571      114.3087658803
H               203.7025342909       70.1477011097      114.2472963574
H               206.0984417523       70.8480269832      112.4596350725
H               204.4555433284       71.4881320707      112.2810823070
H               206.1607127171       71.9271023501      114.7852500873
H               206.1489278297       73.0344898573      113.4022201745
H               203.7308140201       73.6280519118      112.6825261405
H               202.7058665739       74.0461965973      113.9954449307
H               209.0197446236       66.9104871070      121.5836550062
H               212.4436670226       65.4460214117      122.9524686609
H               214.8557296100       66.5027637921      123.3660360238
H               217.7955101452       65.4204372698      124.9678112912
H               222.1107291461       72.1940523948      123.0497972633
H               220.0330826528       75.5347474572      123.5544877502
H               214.2741848722       76.2642074198      123.4954486401
H               211.3496071771       75.2644921581      111.1599361670
H               211.4685615759       71.8219608825      106.5043906583
H               220.3465845838       76.6412905773      118.1075223786
H               221.8445170926       73.3815408936      111.9084761157
H               208.7518670652       59.9113082178      115.6120977271
H               210.9072753276       61.0407579069      119.7956452705
H               218.7430687238       64.8464638035      117.8096756485
H               210.3624396925       78.4474570668      116.3045492235
H               208.2865778641       73.5422545524      120.9883222714
H               207.1572047554       68.7073358067      118.4169361075
H               203.4837278052       68.7495596128      112.2119402111
