405
Properties=species:S:1:pos:R:3 pbc="F F F"
N      12.08900000      11.94500000      27.46400000 
C      12.39400000      12.63400000      26.22100000 
C      13.88900000      12.64400000      25.93000000 
O      14.27000000      12.81300000      24.75200000 
C      11.82700000      14.05600000      26.24000000 
H      11.68000000      12.46600000      28.21400000 
H      11.95500000      12.08900000      25.39700000 
H      12.02400000      14.54300000      25.29500000 
H      10.75600000      14.01400000      26.38500000 
H      12.26700000      14.64100000      27.03700000 
N      14.88000000      10.16500000      23.18000000 
C      14.68000000      10.57200000      21.80100000 
C      15.85600000      11.42000000      21.33300000 
O      16.30400000      11.26800000      20.18300000 
C      13.34900000      11.30400000      21.62600000 
H      14.40700000      10.67000000      23.89400000 
H      14.69300000       9.69500000      21.17400000 
H      13.21000000      11.56700000      20.58600000 
H      12.53900000      10.65300000      21.92500000 
H      13.31100000      12.20600000      22.22200000 
N      16.40300000      12.29700000      22.18800000 
C      17.58500000      13.05700000      21.80600000 
C      18.72400000      12.09600000      21.48000000 
O      19.47100000      12.32900000      20.51400000 
C      18.04100000      14.10500000      22.86200000 
C      16.88700000      14.92100000      23.48400000 
C      19.09100000      15.03800000      22.23600000 
C      16.04900000      15.76800000      22.52300000 
H      16.00800000      12.41200000      23.09400000 
H      17.38000000      13.56800000      20.87800000 
H      18.50600000      13.56500000      23.68000000 
H      16.22700000      14.26300000      24.03100000 
H      17.33900000      15.57300000      24.22500000 
H      19.37400000      15.80500000      22.94700000 
H      19.98800000      14.50800000      21.94500000 
H      18.69900000      15.52900000      21.35500000 
H      15.27900000      16.29500000      23.07700000 
H      16.64600000      16.51000000      22.00500000 
H      15.55300000      15.15600000      21.78100000 
N      18.83100000      11.03000000      17.88700000 
C      19.23000000      12.08300000      16.97100000 
C      20.72100000      12.09600000      16.68700000 
O      21.15200000      12.85900000      15.80500000 
C      18.80100000      13.43800000      17.53500000 
H      18.58000000      11.30400000      18.81100000 
H      18.75200000      11.91500000      16.01700000 
H      19.06500000      14.23200000      16.85400000 
H      17.73200000      13.43900000      17.67300000 
H      19.27400000      13.62100000      18.48800000 
N      21.55000000       8.48100000      13.52100000 
C      21.29400000       8.44200000      12.09200000 
C      22.38600000       9.13300000      11.27800000 
O      22.42900000       8.96600000      10.04800000 
C      19.94100000       9.08900000      11.77900000 
C      18.79400000       8.30800000      12.37700000 
O      18.69500000       7.08300000      12.20500000 
N      17.89500000       9.00900000      13.07300000 
H      21.14800000       9.21600000      14.05900000 
H      21.28200000       7.41200000      11.77200000 
H      19.93200000      10.11000000      12.13100000 
H      19.80100000       9.10800000      10.70700000 
H      17.10900000       8.55100000      13.47400000 
H      18.00000000       9.98200000      13.24400000 
N      23.22600000       9.92300000      11.94600000 
C      24.32900000      10.64200000      11.35000000 
C      25.57700000       9.76100000      11.29700000 
O      25.62900000       8.66100000      11.86100000 
C      24.50700000      12.00200000      12.06400000 
C      24.69400000      11.99800000      13.59400000 
C      26.11100000      11.61500000      14.03800000 
C      24.31800000      13.38200000      14.14100000 
H      23.13200000       9.96400000      12.93200000 
H      24.06800000      10.85500000      10.32300000 
H      25.32700000      12.54400000      11.60600000 
H      23.60500000      12.55500000      11.83400000 
H      24.00800000      11.28500000      14.03700000 
H      26.17900000      11.64000000      15.12000000 
H      26.38800000      10.61900000      13.72100000 
H      26.83900000      12.31000000      13.63900000 
H      24.46600000      13.41500000      15.21100000 
H      24.93800000      14.14800000      13.70000000 
H      23.27800000      13.60800000      13.94200000 
N      30.23500000      13.34600000      10.47000000 
C      29.41300000      14.48800000      10.85300000 
C      29.63800000      14.85300000      12.31300000 
O      29.67300000      16.04900000      12.65600000 
C      27.93700000      14.17400000      10.53500000 
C      26.99400000      15.37500000      10.52800000 
C      26.47100000      15.86300000      11.87200000 
O      26.80200000      15.24300000      12.92100000 
O      25.69300000      16.86500000      11.83900000 
H      29.77400000      12.51100000      10.17300000 
H      29.72400000      15.35400000      10.28900000 
H      27.93200000      13.74100000       9.54100000 
H      27.57700000      13.41500000      11.21300000 
H      27.44600000      16.21900000      10.01800000 
H      26.11700000      15.11400000       9.94400000 
N      15.40700000      20.62000000      23.85300000 
C      14.74300000      20.10100000      22.66500000 
C      14.70000000      21.13600000      21.54200000 
O      14.84800000      20.77500000      20.36100000 
C      13.32600000      19.65300000      23.03000000 
H      14.89300000      20.66500000      24.71000000 
H      15.30200000      19.26700000      22.27000000 
H      12.80200000      19.34700000      22.13900000 
H      13.36900000      18.81300000      23.71100000 
H      12.77500000      20.45700000      23.49800000 
N      18.48900000      21.80400000      20.28800000 
C      18.98800000      20.73000000      19.44700000 
C      18.53800000      20.94300000      18.00900000 
O      19.33400000      20.79100000      17.06700000 
C      18.52000000      19.37000000      20.00700000 
O      19.10200000      19.18400000      21.30400000 
C      18.95700000      18.20600000      19.14200000 
H      17.94400000      21.57400000      21.09400000 
H      20.06800000      20.73700000      19.42900000 
H      17.44000000      19.38200000      20.09600000 
H      18.59900000      19.61000000      22.00100000 
H      18.66600000      17.28200000      19.61900000 
H      18.48800000      18.24100000      18.17000000 
H      20.03200000      18.20500000      19.01300000 
N      17.26500000      21.29200000      17.80400000 
C      16.74300000      21.51100000      16.46600000 
C      17.45500000      22.65800000      15.76800000 
O      17.70500000      22.57000000      14.55100000 
C      15.23400000      21.76400000      16.52000000 
H      16.65100000      21.41600000      18.57900000 
H      16.94100000      20.64100000      15.85900000 
H      14.85100000      21.90900000      15.52000000 
H      14.73700000      20.90700000      16.95400000 
H      15.00800000      22.63800000      17.11500000 
N      20.86700000      21.32100000      14.44200000 
C      20.69800000      20.31200000      13.41100000 
C      20.20400000      20.90200000      12.09900000 
O      20.66200000      20.44400000      11.03500000 
C      19.72900000      19.20400000      13.85400000 
C      20.23000000      18.28900000      14.98600000 
C      19.06100000      17.41100000      15.44900000 
C      21.41500000      17.41400000      14.55800000 
H      20.31300000      21.25900000      15.27200000 
H      21.66100000      19.88700000      13.17400000 
H      18.79600000      19.66800000      14.15400000 
H      19.51500000      18.58900000      12.98700000 
H      20.54000000      18.90400000      15.82200000 
H      19.36500000      16.74900000      16.25200000 
H      18.23400000      18.01400000      15.80500000 
H      18.69900000      16.79900000      14.63200000 
H      21.74100000      16.79300000      15.38600000 
H      21.13500000      16.75800000      13.73900000 
H      22.26700000      18.00200000      14.24000000 
N      19.26700000      21.85800000      12.10300000 
C      18.76000000      22.37000000      10.83900000 
C      19.67800000      23.40500000      10.20500000 
O      19.52000000      23.67500000       9.00200000 
C      17.31600000      22.89600000      10.91200000 
C      17.12100000      24.21600000      11.66300000 
C      15.71200000      24.77100000      11.43400000 
N      15.45100000      25.95300000      12.26400000 
C      15.08900000      25.94100000      13.54200000 
N      14.79700000      24.80200000      14.16200000 
N      15.00900000      27.08300000      14.21900000 
H      18.85600000      22.15700000      12.96700000 
H      18.76000000      21.54900000      10.13800000 
H      16.98300000      23.01100000       9.88700000 
H      16.70400000      22.12000000      11.35800000 
H      17.28900000      24.06700000      12.72000000 
H      17.83400000      24.96100000      11.32500000 
H      15.59400000      25.08600000      10.40900000 
H      14.95500000      24.02000000      11.61900000 
H      15.66400000      26.83600000      11.85700000 
H      14.84600000      23.92200000      13.70800000 
H      14.51200000      24.79900000      15.11300000 
H      15.23300000      27.95000000      13.78700000 
H      14.93500000      27.07500000      15.21300000 
N      23.49100000      20.32700000      10.29400000 
C      23.30800000      18.91200000      10.04600000 
C      22.62200000      18.63200000       8.72100000 
O      23.01100000      17.69000000       8.00900000 
H      22.95100000      20.73700000      11.01900000 
H      24.25100000      18.39400000      10.03400000 
H      22.70400000      18.50700000      10.84400000 
N      21.57700000      19.40600000       8.40400000 
C      20.91400000      19.43400000       7.10100000 
C      20.33100000      18.07400000       6.71900000 
O      20.36400000      17.67000000       5.54600000 
C      21.80700000      19.99500000       5.98500000 
C      22.31200000      21.42800000       6.21600000 
C      23.34900000      21.78300000       5.14200000 
C      21.17800000      22.46100000       6.22700000 
H      21.26900000      20.06000000       9.09200000 
H      20.05800000      20.08500000       7.23500000 
H      22.65200000      19.33100000       5.85900000 
H      21.24300000      19.96600000       5.06200000 
H      22.81000000      21.46600000       7.17700000 
H      23.75900000      22.77300000       5.31600000 
H      24.17100000      21.07600000       5.13900000 
H      22.89700000      21.77800000       4.15400000 
H      21.58000000      23.45800000       6.36500000 
H      20.63400000      22.44500000       5.28700000 
H      20.47600000      22.29000000       7.03000000 
N      19.73000000      17.37900000       7.69600000 
C      19.16700000      16.06100000       7.49500000 
C      17.68200000      16.05700000       7.81000000 
O      17.20300000      16.74900000       8.72500000 
C      19.87000000      15.03200000       8.40100000 
C      21.31100000      14.76000000       7.94300000 
C      22.09800000      14.13200000       9.06300000 
O      21.85900000      12.97300000       9.45200000 
N      23.02600000      14.90300000       9.63600000 
H      19.72400000      17.74800000       8.62000000 
H      19.31100000      15.79700000       6.46000000 
H      19.85900000      15.41800000       9.41400000 
H      19.31900000      14.10300000       8.39900000 
H      21.30100000      14.07400000       7.10600000 
H      21.78500000      15.67600000       7.63100000 
H      23.21700000      15.82000000       9.29700000 
H      23.55000000      14.56800000      10.41100000 
N      16.92700000      15.20100000       7.10700000 
C      15.49100000      15.07200000       7.31200000 
C      15.17300000      14.56300000       8.70900000 
O      14.08200000      14.83700000       9.24200000 
C      14.89700000      14.16500000       6.21500000 
C      13.37500000      14.30800000       6.05500000 
C      12.89800000      13.45700000       4.88300000 
O      12.57800000      12.25800000       5.13500000 
O      12.89800000      13.98800000       3.73500000 
H      17.34300000      14.68400000       6.36600000 
H      15.03600000      16.05100000       7.25100000 
H      15.36900000      14.44300000       5.27900000 
H      15.15500000      13.13100000       6.41500000 
H      12.86600000      13.98400000       6.95100000 
H      13.13000000      15.34700000       5.87100000 
N      16.10300000      13.84300000       9.34700000 
C      15.91900000      13.36000000      10.70100000 
C      15.75900000      14.48400000      11.71400000 
O      15.26300000      14.20100000      12.82400000 
C      17.04100000      12.39600000      11.12500000 
C      18.44600000      13.01200000      11.09600000 
S      19.44600000      12.79800000      12.66800000 
C      18.56200000      13.98100000      13.80700000 
H      16.92100000      13.57200000       8.85200000 
H      14.98900000      12.81400000      10.74900000 
H      16.78800000      12.03700000      12.11200000 
H      17.00200000      11.53800000      10.46500000 
H      19.05600000      12.56000000      10.33200000 
H      18.42000000      14.07400000      10.90900000 
H      19.21300000      14.12400000      14.64800000 
H      18.40900000      14.91600000      13.29500000 
H      17.62100000      13.56600000      14.12400000 
N      16.10000000      15.73700000      11.41500000 
C      15.80400000      16.81900000      12.34600000 
C      14.30100000      16.91500000      12.58700000 
O      13.86300000      17.21500000      13.71200000 
C      16.36800000      18.14100000      11.81900000 
H      16.52900000      15.96400000      10.54000000 
H      16.24000000      16.59600000      13.30700000 
H      16.19500000      18.92900000      12.53900000 
H      17.43500000      18.04400000      11.67000000 
H      15.91300000      18.41800000      10.87800000 
N      13.49000000      16.67500000      11.54900000 
C      12.04800000      16.68000000      11.67600000 
C      11.50800000      15.44600000      12.37500000 
O      10.50800000      15.52800000      13.10800000 
H      13.87500000      16.40300000      10.67000000 
H      11.71900000      17.54100000      12.23400000 
H      11.62000000      16.73400000      10.68500000 
N      12.14900000      14.28700000      12.18000000 
C      11.81200000      13.08200000      12.92300000 
C      11.97200000      13.31900000      14.41500000 
O      11.11900000      12.88200000      15.20400000 
C      12.68300000      11.90500000      12.44200000 
C      12.46800000      10.60100000      13.22600000 
C      13.37600000      10.46700000      14.43100000 
O      14.57400000      10.79800000      14.37400000 
N      12.84700000       9.94400000      15.54200000 
H      12.90800000      14.26000000      11.53800000 
H      10.77000000      12.84300000      12.77600000 
H      12.44800000      11.73700000      11.40000000 
H      13.72300000      12.18100000      12.50500000 
H      11.43200000      10.48000000      13.51200000 
H      12.71500000       9.76900000      12.57600000 
H      11.88500000       9.71100000      15.61400000 
H      13.41500000       9.82800000      16.35100000 
N      13.04800000      13.98900000      14.84400000 
C      13.21000000      14.26200000      16.26100000 
C      12.10500000      15.18400000      16.74500000 
O      11.50000000      14.95000000      17.81000000 
C      14.58600000      14.88000000      16.55700000 
C      14.78200000      15.20800000      18.04900000 
C      14.75800000      13.93900000      18.90500000 
C      16.06700000      16.01200000      18.26800000 
H      13.77100000      14.24800000      14.20200000 
H      13.08600000      13.34300000      16.81000000 
H      15.34700000      14.17600000      16.23700000 
H      14.70500000      15.78000000      15.96400000 
H      13.96600000      15.84400000      18.36800000 
H      14.97900000      14.16700000      19.93800000 
H      13.79000000      13.45600000      18.88500000 
H      15.49400000      13.22300000      18.56200000 
H      16.19500000      16.23400000      19.32100000 
H      16.94000000      15.46700000      17.93600000 
H      16.03300000      16.95300000      17.73100000 
N      11.81600000      16.26000000      16.00800000 
C      10.81500000      17.21600000      16.44700000 
C       9.47900000      16.55000000      16.72400000 
O       8.78800000      16.98200000      17.67200000 
C      10.63300000      18.35700000      15.43500000 
C      11.79800000      19.35300000      15.48400000 
C      11.61100000      20.46600000      14.48600000 
O      11.33600000      20.22600000      13.29500000 
N      11.76000000      21.71800000      14.93100000 
H      12.32000000      16.43700000      15.16500000 
H      11.12000000      17.63500000      17.39400000 
H      10.51900000      17.94500000      14.44300000 
H       9.71500000      18.87800000      15.68200000 
H      11.89300000      19.75400000      16.48400000 
H      12.72900000      18.85700000      15.23700000 
H      11.96400000      21.92300000      15.88100000 
H      11.66600000      22.48200000      14.30200000 
N       9.08200000      15.53700000      15.96000000 
C       7.81800000      14.84300000      16.17100000 
C       7.66500000      14.30100000      17.58900000 
O       6.53000000      14.25600000      18.09000000 
C       7.69200000      13.69400000      15.16200000 
H       9.64300000      15.26900000      15.17700000 
H       6.99800000      15.53300000      16.04100000 
H       6.75100000      13.17900000      15.30100000 
H       7.72200000      14.08600000      14.15300000 
H       8.50200000      12.98800000      15.28000000 
N       8.75300000      13.83000000      18.21600000 
C       8.69800000      13.25900000      19.55000000 
C       9.00700000      14.26300000      20.65300000 
O       8.66000000      14.00400000      21.81800000 
C       9.63500000      12.04900000      19.66400000 
H       9.64300000      13.89600000      17.77000000 
H       7.68500000      12.94100000      19.73400000 
H       9.59300000      11.63800000      20.66400000 
H       9.32300000      11.28600000      18.96400000 
H      10.65800000      12.32600000      19.44400000 
N       9.66100000      15.39600000      20.35400000 
C      10.01400000      16.35000000      21.39100000 
C       8.79600000      16.97500000      22.05400000 
O       8.80900000      17.19900000      23.27400000 
C      10.91400000      17.48700000      20.86700000 
O      10.26200000      18.27300000      19.85400000 
C      12.28000000      17.00200000      20.41200000 
H      10.00300000      15.51900000      19.42600000 
H      10.54800000      15.84700000      22.18300000 
H      11.03600000      18.17100000      21.69000000 
H       9.84000000      17.79400000      19.13800000 
H      12.86100000      17.84700000      20.06300000 
H      12.81000000      16.54200000      21.23800000 
H      12.20200000      16.28600000      19.61100000 
N       7.76600000      17.32900000      21.27600000 
C       6.61700000      18.03100000      21.81900000 
C       5.74500000      17.09900000      22.66000000 
O       5.21400000      17.54200000      23.69100000 
C       5.77100000      18.66500000      20.69600000 
C       6.48900000      19.73800000      19.94800000 
N       6.89100000      20.92300000      20.55700000 
C       6.84300000      19.77100000      18.63700000 
C       7.47100000      21.63900000      19.62500000 
N       7.46700000      20.98400000      18.44200000 
H       7.82700000      17.17900000      20.29500000 
H       6.95800000      18.80400000      22.48800000 
H       5.44600000      17.89400000      20.00600000 
H       4.88200000      19.07800000      21.15700000 
H       6.72400000      19.05600000      17.85900000 
H       7.89600000      22.60900000      19.75100000 
H       7.84300000      21.31700000      17.58600000 
N       5.59400000      15.87200000      22.15800000 
C       4.85200000      14.70400000      22.63700000 
C       4.29300000      13.96800000      21.40300000 
O       4.50400000      12.72300000      21.34600000 
C       3.71200000      15.05100000      23.60700000 
C       2.88100000      13.82500000      24.02100000 
C       3.67200000      12.81500000      24.81700000 
O       4.19100000      13.12300000      25.90600000 
N       3.77200000      11.58200000      24.31000000 
O       3.64600000      14.64900000      20.56200000 
H       6.13000000      15.68600000      21.34200000 
H       5.55200000      14.03700000      23.12100000 
H       4.11800000      15.51800000      24.48900000 
H       3.05500000      15.76800000      23.13400000 
H       2.08100000      14.17000000      24.66700000 
H       2.42000000      13.35800000      23.16400000 
H       3.46900000      11.37800000      23.38700000 
H       4.27800000      10.88300000      24.80300000 
H      11.50446650      11.27982618      27.30317593 
H      14.54419697      12.51685829      26.67468243 
H      14.61140516       9.31227650      23.28353473 
H      18.86775967      11.28184692      22.04257259 
H      18.11027329      10.60289739      17.55815906 
H      21.33383978      11.49907552      17.20479202 
H      21.24284703       7.72566731      13.90195876 
H      26.38528196      10.06867983      10.79499064 
H      30.76574703      13.57567773       9.78039452 
H      29.75757497      14.13230547      12.99586252 
H      16.12345430      20.10981030      24.04378708 
H      14.55309979      22.10145951      21.75719356 
H      19.18174355      22.27864511      20.61175670 
H      17.71763677      23.47238828      16.28548783 
H      21.71770127      21.31096345      14.73560963 
H      20.38606732      23.84866713      10.75436340 
H      24.34856031      20.48445143      10.51715772 
