616
Properties=species:S:1:pos:R:3 pbc="F F F"
N      46.37100000      37.60600000      52.32400000 
C      46.48900000      39.05000000      52.27900000 
C      47.90800000      39.44800000      52.03700000 
O      48.85800000      38.66100000      52.24900000 
C      45.93700000      39.65100000      53.57900000 
C      46.84900000      39.31400000      54.76300000 
C      44.52300000      39.15200000      53.80700000 
C      46.30900000      39.85600000      56.07900000 
H      46.77500000      37.12400000      53.07500000 
H      45.88700000      39.39400000      51.47000000 
H      45.93500000      40.72300000      53.44700000 
H      46.95600000      38.25200000      54.83800000 
H      47.82700000      39.72800000      54.58900000 
H      44.04100000      39.74200000      54.57700000 
H      43.94600000      39.23000000      52.91400000 
H      44.53900000      38.12900000      54.12700000 
H      47.01800000      39.70900000      56.87000000 
H      46.09300000      40.91500000      56.00200000 
H      45.38900000      39.34800000      56.35600000 
N      44.08300000      52.79100000      59.10600000 
C      44.52100000      51.52600000      59.62600000 
C      44.83400000      51.59300000      61.09000000 
O      45.40500000      52.58100000      61.60100000 
H      43.16200000      53.08900000      59.35700000 
H      43.78200000      50.78100000      59.43100000 
H      45.43000000      51.26100000      59.11100000 
N      44.49900000      50.52300000      61.78100000 
C      44.81100000      50.38900000      63.18200000 
C      44.74800000      48.96000000      63.57900000 
O      44.42500000      48.04300000      62.82300000 
C      43.90200000      51.27300000      64.02700000 
C      42.46300000      50.87900000      64.01500000 
O      42.18900000      49.66400000      63.72700000 
O      41.61200000      51.76300000      64.31200000 
H      44.03000000      49.76600000      61.36000000 
H      45.83200000      50.71100000      63.33500000 
H      44.23900000      51.28500000      65.06000000 
H      43.98600000      52.29100000      63.66600000 
N      45.17100000      48.76500000      64.83100000 
C      45.12800000      47.52200000      65.54300000 
C      44.26300000      47.78100000      66.76100000 
O      44.51900000      48.69000000      67.48300000 
C      46.52500000      47.14900000      66.00500000 
C      46.59900000      45.91900000      66.88700000 
C      46.00800000      44.69700000      66.21100000 
C      48.05600000      45.66600000      67.24500000 
H      45.60300000      49.52500000      65.30500000 
H      44.69500000      46.76900000      64.90000000 
H      47.12800000      46.99100000      65.11900000 
H      46.92900000      47.99900000      66.52500000 
H      46.04200000      46.11100000      67.80500000 
H      46.17200000      43.81800000      66.79500000 
H      44.95200000      44.79800000      66.02600000 
H      46.50000000      44.55700000      65.24000000 
H      48.14200000      44.82200000      67.93500000 
H      48.61600000      45.44100000      66.36400000 
H      48.49500000      46.53300000      67.72300000 
N      43.24700000      46.94000000      66.95100000 
C      42.35900000      47.02900000      68.07900000 
C      42.60500000      45.82600000      68.95700000 
O      42.77400000      44.72100000      68.43800000 
C      40.92800000      47.02000000      67.59100000 
C      40.62700000      48.12600000      66.59300000 
C      39.17100000      48.10500000      66.19900000 
C      41.01900000      49.47800000      67.14700000 
H      43.02500000      46.24700000      66.24700000 
H      42.58700000      47.92700000      68.62200000 
H      40.70900000      46.07100000      67.14900000 
H      40.26300000      47.13100000      68.46700000 
H      41.22400000      47.93200000      65.71500000 
H      38.99000000      48.84000000      65.41400000 
H      38.86800000      47.15100000      65.85000000 
H      38.54800000      48.38400000      67.05500000 
H      40.75800000      50.26400000      66.46300000 
H      40.53100000      49.65100000      68.09200000 
H      42.08500000      49.53600000      67.30600000 
N      42.59300000      46.05300000      70.27600000 
C      42.83600000      44.98400000      71.22700000 
C      41.75300000      45.03100000      72.26800000 
O      41.58400000      46.08100000      72.90200000 
C      44.17800000      45.17700000      71.89200000 
C      45.35500000      45.14300000      70.92800000 
C      46.63200000      45.56900000      71.65400000 
C      45.53300000      43.79300000      70.31300000 
H      42.55000000      46.96800000      70.62000000 
H      42.79000000      44.04000000      70.68500000 
H      44.14900000      46.11400000      72.41200000 
H      44.31900000      44.39500000      72.63900000 
H      45.16200000      45.87500000      70.14400000 
H      47.47300000      45.55800000      70.98200000 
H      46.53700000      46.56100000      72.06100000 
H      46.83400000      44.88700000      72.47400000 
H      46.35800000      43.77600000      69.61100000 
H      45.72000000      43.04500000      71.07000000 
H      44.63900000      43.49200000      69.76600000 
N      41.07000000      43.92200000      72.46800000 
C      40.00800000      43.81400000      73.44500000 
C      40.31300000      42.65700000      74.37500000 
O      40.56500000      41.56300000      73.89900000 
C      38.69300000      43.43200000      72.76200000 
C      38.41300000      44.31900000      71.57100000 
O      38.35400000      45.56900000      71.75700000 
O      38.23200000      43.74800000      70.47000000 
H      41.25100000      43.12500000      71.87900000 
H      39.92300000      44.74400000      73.96600000 
H      38.77000000      42.42300000      72.42200000 
H      37.88600000      43.51500000      73.47200000 
N      54.36500000      45.65000000      71.87100000 
C      53.98900000      46.14800000      70.55200000 
C      55.12600000      47.02200000      70.09600000 
O      55.29400000      48.13800000      70.60200000 
C      52.66800000      46.91400000      70.61700000 
C      51.53700000      46.02400000      71.15800000 
C      52.28300000      47.46500000      69.26200000 
C      50.97500000      46.51000000      72.46100000 
H      54.77200000      46.28600000      72.50700000 
H      53.89500000      45.30400000      69.90000000 
H      52.82300000      47.72400000      71.30900000 
H      50.76000000      45.97200000      70.41900000 
H      51.89800000      44.99800000      71.26900000 
H      51.43700000      48.12800000      69.36800000 
H      53.08300000      48.01700000      68.80000000 
H      51.99800000      46.66200000      68.60800000 
H      50.12700000      45.89800000      72.78100000 
H      51.71300000      46.48300000      73.24800000 
H      50.62900000      47.52000000      72.36500000 
N      42.44300000      48.75700000      73.72600000 
C      43.24100000      49.82900000      73.21400000 
C      43.32500000      49.71700000      71.70800000 
O      42.79500000      48.76800000      71.10400000 
C      44.64700000      49.80300000      73.83000000 
O      45.29000000      51.05900000      73.57800000 
C      45.48400000      48.67700000      73.28600000 
H      42.25000000      47.95500000      73.15000000 
H      42.80200000      50.75100000      73.46300000 
H      44.50000000      49.68300000      74.90000000 
H      45.16700000      51.67800000      74.26400000 
H      46.40300000      48.57400000      73.87400000 
H      44.95000000      47.77300000      73.31000000 
H      45.78000000      48.90900000      72.25700000 
N      44.01900000      50.68200000      71.10400000 
C      44.31000000      50.62100000      69.72200000 
C      45.66700000      51.21000000      69.49000000 
O      46.06600000      52.16900000      70.18400000 
C      43.30300000      51.40800000      68.90000000 
O      43.65900000      51.39100000      67.51000000 
H      44.48300000      51.34600000      71.66700000 
H      44.29900000      49.59000000      69.38700000 
H      42.33000000      50.98700000      69.05700000 
H      43.31300000      52.43300000      69.20700000 
H      43.87100000      50.49900000      67.22600000 
N      46.36500000      50.71200000      68.47900000 
C      47.57200000      51.28400000      68.00100000 
C      47.33300000      51.58700000      66.51900000 
O      47.44900000      50.74400000      65.68000000 
C      48.81100000      50.40800000      68.21100000 
C      48.90900000      50.01100000      69.67600000 
C      50.03700000      51.21700000      67.79800000 
C      48.21700000      48.71600000      70.04400000 
H      45.96900000      49.90600000      67.98900000 
H      47.73300000      52.19300000      68.54200000 
H      48.71400000      49.52900000      67.58500000 
H      49.97600000      49.91600000      69.91600000 
H      48.54900000      50.82800000      70.28200000 
H      50.91600000      50.61100000      67.86700000 
H      49.95500000      51.58100000      66.77700000 
H      50.14600000      52.05200000      68.44600000 
H      48.30000000      48.54900000      71.12300000 
H      47.16500000      48.75400000      69.80100000 
H      48.65800000      47.88500000      69.54400000 
N      46.91200000      52.81000000      66.22300000 
C      46.71100000      53.18400000      64.82700000 
C      48.00200000      53.30100000      64.11000000 
O      49.08700000      53.48700000      64.68500000 
C      46.02500000      54.55900000      64.89900000 
C      45.49900000      54.63600000      66.32900000 
C      46.53100000      53.89500000      67.14000000 
H      46.08700000      52.47100000      64.35200000 
H      46.75800000      55.33900000      64.73700000 
H      45.25900000      54.64500000      64.15300000 
H      45.36000000      55.66200000      66.66000000 
H      44.55600000      54.11900000      66.40100000 
H      47.40600000      54.53100000      67.32700000 
H      46.17100000      53.51900000      68.04800000 
N      47.91000000      53.27100000      62.79300000 
C      49.05600000      53.51100000      61.95100000 
C      49.45900000      54.95600000      61.97900000 
O      48.72700000      55.87300000      62.35600000 
C      48.78100000      53.04400000      60.53900000 
C      49.10900000      51.58500000      60.30000000 
C      50.61600000      51.36600000      60.21600000 
C      48.51100000      50.66700000      61.37400000 
H      47.02900000      53.07800000      62.34600000 
H      49.88400000      52.95100000      62.36900000 
H      47.74300000      53.23900000      60.31000000 
H      49.37600000      53.63300000      59.84800000 
H      48.65900000      51.32200000      59.36200000 
H      50.83500000      50.31400000      60.04500000 
H      51.02200000      51.92600000      59.37300000 
H      51.10400000      51.67300000      61.09400000 
H      48.68800000      49.63100000      61.10400000 
H      48.97300000      50.84600000      62.33000000 
H      47.45800000      50.81900000      61.47400000 
N      55.74100000      44.99800000      62.36600000 
C      55.20400000      45.26900000      63.69000000 
C      55.21800000      43.91500000      64.37400000 
O      54.75600000      42.94300000      63.82600000 
C      53.80000000      45.86300000      63.60600000 
C      52.97300000      45.72300000      64.89200000 
C      53.62700000      46.34200000      66.09200000 
C      51.62500000      46.38800000      64.66800000 
H      55.75900000      44.03300000      62.09400000 
H      55.87200000      45.93800000      64.19500000 
H      53.90400000      46.90100000      63.35600000 
H      53.28700000      45.37500000      62.81100000 
H      52.82700000      44.67200000      65.06600000 
H      53.04700000      46.13400000      66.97700000 
H      54.62900000      45.98900000      66.27800000 
H      53.67400000      47.42400000      65.98800000 
H      50.93600000      46.11800000      65.46400000 
H      51.73200000      47.44800000      64.66200000 
H      51.17500000      46.07900000      63.72600000 
N      54.17500000      41.89200000      67.71500000 
C      53.23200000      41.87400000      68.83100000 
C      53.36200000      40.55400000      69.56000000 
O      53.25500000      39.46900000      68.94700000 
C      51.79800000      42.06600000      68.36200000 
C      50.81700000      41.86400000      69.50200000 
C      51.65800000      43.44900000      67.77300000 
H      54.08600000      41.11700000      67.06100000 
H      53.51100000      42.66300000      69.48300000 
H      51.60000000      41.32100000      67.58800000 
H      49.81300000      41.99800000      69.16100000 
H      50.89700000      40.87200000      69.93500000 
H      51.01100000      42.58400000      70.29000000 
H      50.66200000      43.58600000      67.34800000 
H      51.78300000      44.19900000      68.55100000 
H      52.37400000      43.63600000      67.00700000 
N      51.73400000      38.80400000      73.00400000 
C      50.74400000      38.85600000      74.06400000 
C      50.89200000      37.61200000      74.89300000 
O      50.71900000      36.49300000      74.34600000 
C      49.33200000      39.01600000      73.47600000 
C      49.24600000      40.40300000      72.87500000 
C      48.29000000      38.75300000      74.55000000 
C      47.99900000      40.64400000      72.04500000 
H      51.62100000      38.04100000      72.35100000 
H      50.96100000      39.70800000      74.67800000 
H      49.23400000      38.27300000      72.68900000 
H      49.30500000      41.12600000      73.67300000 
H      50.11200000      40.56300000      72.24800000 
H      47.30800000      38.95300000      74.17700000 
H      48.32000000      37.72800000      74.86900000 
H      48.46500000      39.38300000      75.40300000 
H      48.01400000      41.63600000      71.62800000 
H      47.94000000      39.94400000      71.24300000 
H      47.10100000      40.55400000      72.64600000 
N      49.43400000      34.84500000      72.12700000 
C      49.24700000      35.25000000      70.76600000 
C      50.46800000      35.98300000      70.33000000 
O      50.92800000      36.92400000      70.99400000 
C      47.97300000      36.06600000      70.54500000 
C      47.49000000      36.01300000      69.14800000 
C      47.45600000      37.13300000      68.31500000 
C      47.02400000      34.79900000      68.63100000 
C      46.97900000      37.04400000      67.02400000 
C      46.54000000      34.70200000      67.34100000 
C      46.52100000      35.84500000      66.53300000 
O      46.03900000      35.71200000      65.25600000 
H      49.86600000      35.50000000      72.77800000 
H      49.15300000      34.34700000      70.19600000 
H      47.22500000      35.65300000      71.21500000 
H      48.14900000      37.09300000      70.86700000 
H      47.80400000      38.07100000      68.69700000 
H      47.03100000      33.93700000      69.25200000 
H      46.94900000      37.90700000      66.39600000 
H      46.16800000      33.79200000      66.95700000 
H      45.89700000      36.55800000      64.79500000 
N      52.52800000      36.97100000      66.48600000 
C      52.72600000      36.94200000      65.05000000 
C      53.79900000      37.93800000      64.73800000 
O      53.99800000      38.90000000      65.49000000 
C      51.47200000      37.34300000      64.26600000 
C      50.24400000      36.53900000      64.54600000 
C      49.09800000      36.96700000      63.64200000 
C      48.89700000      38.46100000      63.71700000 
N      47.73000000      38.86600000      62.88000000 
H      52.77600000      37.83600000      66.92300000 
H      53.02900000      35.93700000      64.77000000 
H      51.29800000      38.38800000      64.51600000 
H      51.72200000      37.30600000      63.21100000 
H      50.44600000      35.47300000      64.37600000 
H      49.95000000      36.64000000      65.57300000 
H      49.32700000      36.70100000      62.60200000 
H      48.18200000      36.45700000      63.92000000 
H      48.67500000      38.77300000      64.72700000 
H      49.74900000      38.99400000      63.35900000 
H      47.73200000      39.88500000      62.77900000 
H      47.82700000      38.49000000      61.94000000 
H      46.84400000      38.58100000      63.28100000 
N      53.47500000      41.42500000      60.34100000 
C      52.08200000      41.11100000      60.13300000 
C      51.47300000      42.05800000      59.12600000 
O      51.78800000      43.26100000      59.07400000 
C      51.37900000      40.91100000      61.48800000 
C      51.61500000      41.98200000      62.54800000 
C      51.07800000      43.31800000      62.13700000 
C      51.03600000      41.54100000      63.87100000 
H      53.75800000      41.80900000      61.22700000 
H      52.09200000      40.14200000      59.66800000 
H      50.30900000      40.82300000      61.30800000 
H      51.72900000      39.97400000      61.85400000 
H      52.69000000      42.07800000      62.70500000 
H      51.25600000      44.05500000      62.90800000 
H      51.51300000      43.66800000      61.22200000 
H      49.99500000      43.25000000      61.98700000 
H      51.20600000      42.28100000      64.61900000 
H      49.96100000      41.38400000      63.77900000 
H      51.47900000      40.60900000      64.20900000 
N      50.64800000      41.54800000      58.22000000 
C      50.26700000      42.40200000      57.09300000 
C      49.51900000      43.63100000      57.51100000 
O      48.67300000      43.60500000      58.44500000 
C      49.39600000      41.48100000      56.23700000 
C      49.96800000      40.11100000      56.53400000 
C      50.24800000      40.16400000      58.02000000 
H      51.15400000      42.70600000      56.56500000 
H      48.38900000      41.53600000      56.55200000 
H      49.46100000      41.76000000      55.19300000 
H      49.29400000      39.30800000      56.26900000 
H      50.90400000      39.95900000      55.99000000 
H      49.36400000      39.94600000      58.59200000 
H      51.02800000      39.48400000      58.30600000 
N      46.94300000      45.34600000      57.07900000 
C      45.57200000      45.34300000      56.70300000 
C      44.90600000      46.61800000      57.19200000 
O      45.34600000      47.33900000      58.03800000 
C      44.90900000      44.10000000      57.29600000 
C      44.85000000      44.20700000      58.80500000 
C      43.54100000      43.85000000      56.68900000 
H      47.27300000      44.72600000      57.79300000 
H      45.50200000      45.31100000      55.63000000 
H      45.55800000      43.28400000      57.02000000 
H      44.50000000      43.27400000      59.23900000 
H      45.81200000      44.41000000      59.24000000 
H      44.16000000      44.98300000      59.10600000 
H      43.25800000      42.80900000      56.82600000 
H      42.78100000      44.45000000      57.16400000 
H      43.52500000      44.05300000      55.63900000 
N      43.71700000      46.84200000      56.59600000 
C      42.87200000      47.96800000      56.90500000 
C      42.45700000      48.03000000      58.35600000 
O      42.52300000      49.07700000      58.97300000 
C      41.65100000      47.80600000      56.01500000 
C      40.50700000      48.75300000      56.27600000 
C      40.73100000      50.11900000      55.69900000 
N      40.93800000      50.00000000      54.26200000 
C      41.26300000      51.00700000      53.50200000 
N      41.37800000      52.20600000      54.00900000 
N      41.48300000      50.81400000      52.20400000 
H      43.40400000      46.24400000      55.87300000 
H      43.39500000      48.89600000      56.71700000 
H      41.98500000      47.88400000      55.01100000 
H      41.30600000      46.79900000      56.17300000 
H      39.61000000      48.34900000      55.86000000 
H      40.33300000      48.86500000      57.35100000 
H      39.89600000      50.76400000      55.89000000 
H      41.62300000      50.57700000      56.13400000 
H      40.79400000      49.09200000      53.83600000 
H      41.20600000      52.38400000      54.95900000 
H      41.61500000      53.00000000      53.43100000 
H      41.38700000      49.90200000      51.81700000 
H      41.79100000      51.55600000      51.59900000 
N      41.93900000      46.91300000      58.88100000 
C      41.40700000      46.91100000      60.21600000 
C      41.68300000      45.55000000      60.82400000 
O      41.31700000      44.52400000      60.22600000 
C      39.91500000      47.17900000      60.19800000 
C      39.24600000      47.17400000      61.56800000 
C      37.75200000      47.46300000      61.47200000 
C      37.49800000      48.90300000      61.04100000 
N      36.03500000      49.14200000      60.92000000 
H      41.71300000      46.13300000      58.30000000 
H      41.90800000      47.67000000      60.79000000 
H      39.78900000      48.15300000      59.72800000 
H      39.44000000      46.44400000      59.56300000 
H      39.37300000      46.19200000      62.03100000 
H      39.73900000      47.89900000      62.22300000 
H      37.29900000      46.78700000      60.78400000 
H      37.29900000      47.31800000      62.45000000 
H      37.88300000      49.60100000      61.74900000 
H      37.91700000      49.10400000      60.06100000 
H      35.84600000      50.08300000      60.64500000 
H      35.61500000      48.52800000      60.24400000 
H      35.56200000      48.98200000      61.80900000 
N      42.30400000      45.53300000      61.98300000 
C      42.58700000      44.28900000      62.67300000 
C      42.15300000      44.43600000      64.09400000 
O      42.48100000      45.43200000      64.75600000 
C      44.07800000      43.97400000      62.62900000 
C      44.36300000      42.62700000      63.22300000 
C      45.82400000      42.26100000      63.11600000 
N      46.31500000      42.27800000      61.76500000 
C      46.14600000      41.30100000      60.87600000 
N      45.48400000      40.20200000      61.22100000 
N      46.68000000      41.41600000      59.67000000 
H      42.66000000      46.38600000      62.40100000 
H      42.02900000      43.52000000      62.19300000 
H      44.36600000      43.97600000      61.58600000 
H      44.61700000      44.74000000      63.13200000 
H      44.09100000      42.59600000      64.28300000 
H      43.75600000      41.85400000      62.73900000 
H      46.42300000      42.98200000      63.66400000 
H      46.01000000      41.28900000      63.56700000 
H      46.77100000      43.10400000      61.43700000 
H      44.97600000      40.10000000      62.08400000 
H      45.40900000      39.46100000      60.57100000 
H      47.24000000      42.19000000      59.40900000 
H      46.50600000      40.71900000      58.97500000 
N      41.46500000      43.40300000      64.59400000 
C      40.94300000      43.41000000      65.93500000 
C      41.30600000      42.09300000      66.55600000 
O      40.80800000      41.07700000      66.13600000 
C      39.43600000      43.54200000      65.90300000 
O      39.16000000      44.73800000      65.14200000 
C      38.85100000      43.63200000      67.29400000 
H      41.21500000      42.66200000      63.98400000 
H      41.38500000      44.23300000      66.47200000 
H      39.03800000      42.70400000      65.39200000 
H      38.26100000      44.97300000      65.17400000 
H      37.77500000      43.79200000      67.21400000 
H      39.01100000      42.73700000      67.83800000 
H      39.27100000      44.45500000      67.82800000 
N      42.19400000      42.13300000      67.56300000 
C      42.55300000      40.94600000      68.28100000 
C      41.84000000      41.02000000      69.61400000 
O      42.02200000      41.99500000      70.36400000 
C      44.07300000      40.80100000      68.37200000 
C      44.61100000      40.46700000      66.99500000 
C      44.44800000      39.73400000      69.40500000 
C      46.12600000      40.50900000      66.89100000 
H      42.50800000      43.01200000      67.90400000 
H      42.15900000      40.09100000      67.73800000 
H      44.47200000      41.74200000      68.68400000 
H      44.26600000      39.46700000      66.72900000 
H      44.18200000      41.14700000      66.27000000 
H      45.52200000      39.61500000      69.42300000 
H      44.12700000      39.99500000      70.37200000 
H      44.01500000      38.78600000      69.12700000 
H      46.44200000      40.30900000      65.89400000 
H      46.49000000      41.48300000      67.17500000 
H      46.58000000      39.78800000      67.54000000 
N      41.00100000      40.04200000      69.85800000 
C      40.13100000      40.07800000      70.99800000 
C      40.25900000      38.77600000      71.74600000 
O      40.37200000      37.70700000      71.12000000 
C      38.68700000      40.26700000      70.56300000 
O      38.58200000      41.30100000      69.60000000 
H      40.89800000      39.30300000      69.20300000 
H      40.43300000      40.88300000      71.62800000 
H      38.30600000      39.37200000      70.11100000 
H      38.08400000      40.48800000      71.43000000 
H      38.49600000      42.19900000      69.98000000 
N      40.24100000      38.87100000      73.05200000 
C      40.46000000      37.67000000      73.85700000 
C      39.34800000      37.54300000      74.85300000 
O      38.97600000      38.49500000      75.57700000 
C      41.83400000      37.74700000      74.53600000 
C      42.01600000      39.02300000      75.35900000 
C      42.88400000      37.65300000      73.43600000 
C      43.41500000      39.25100000      75.90200000 
H      40.21900000      39.76000000      73.48500000 
H      40.43900000      36.86700000      73.23300000 
H      41.91600000      36.88500000      75.18400000 
H      41.75900000      39.86000000      74.73600000 
H      41.31000000      38.99200000      76.17300000 
H      43.86900000      37.51500000      73.84800000 
H      42.66200000      36.80800000      72.80000000 
H      42.87800000      38.53400000      72.83700000 
H      43.40200000      40.17000000      76.48900000 
H      43.73300000      38.46000000      76.53500000 
H      44.13300000      39.38400000      75.10900000 
N      41.09800000      33.46200000      71.51200000 
C      41.66300000      34.58100000      70.84500000 
C      41.11600000      34.65200000      69.44900000 
O      41.20000000      33.65200000      68.71100000 
C      43.19000000      34.44600000      70.75900000 
C      43.78800000      35.71800000      70.14100000 
C      43.81000000      34.15000000      72.11100000 
H      41.37900000      32.53800000      71.20000000 
H      41.39600000      35.46900000      71.39800000 
H      43.39600000      33.62100000      70.10400000 
H      44.85100000      35.60700000      70.05900000 
H      43.38100000      35.91100000      69.17100000 
H      43.58000000      36.57000000      70.78100000 
H      44.87800000      34.11000000      72.01200000 
H      43.56600000      34.92300000      72.83300000 
H      43.45300000      33.20300000      72.50700000 
N      40.61100000      35.80200000      69.04900000 
C      40.15600000      35.99200000      67.69300000 
C      40.88800000      37.16100000      67.11400000 
O      41.08200000      38.21500000      67.77100000 
C      38.64700000      36.18300000      67.61500000 
C      38.10400000      37.21400000      68.56100000 
C      36.61400000      37.40500000      68.45900000 
O      36.03600000      37.01900000      67.40000000 
O      36.04000000      37.98000000      69.41700000 
H      40.54200000      36.56800000      69.69900000 
H      40.43100000      35.11700000      67.15300000 
H      38.39100000      36.46200000      66.59400000 
H      38.19500000      35.22400000      67.79900000 
H      38.31700000      36.92300000      69.58900000 
H      38.57700000      38.15600000      68.41300000 
N      41.28900000      37.03900000      65.85500000 
C      42.01700000      38.06700000      65.12300000 
C      41.18600000      38.35200000      63.92400000 
O      41.21200000      37.60400000      62.91000000 
C      43.38500000      37.52100000      64.81400000 
C      44.31700000      38.38400000      64.03600000 
O      43.88700000      39.39100000      63.42600000 
O      45.52500000      38.01400000      64.03800000 
H      41.14900000      36.16200000      65.39100000 
H      42.06500000      38.92000000      65.74100000 
H      43.86900000      37.26600000      65.75300000 
H      43.28500000      36.58400000      64.26400000 
N      40.37400000      39.38600000      64.03000000 
C      39.51600000      39.82900000      62.95600000 
C      40.34600000      40.67900000      62.04300000 
O      41.00700000      41.60700000      62.51000000 
C      38.36100000      40.63000000      63.49500000 
C      37.55100000      39.86900000      64.53900000 
C      36.26500000      40.59700000      64.89600000 
C      35.51500000      39.83800000      65.95500000 
N      34.11800000      40.36600000      66.07700000 
H      40.46700000      40.00200000      64.81200000 
H      39.14800000      38.95100000      62.42800000 
H      38.73100000      41.54100000      63.90900000 
H      37.70500000      40.90200000      62.65500000 
H      37.30400000      38.89000000      64.14700000 
H      38.15700000      39.72300000      65.41500000 
H      36.51000000      41.59400000      65.26800000 
H      35.66200000      40.71900000      64.01200000 
H      35.42300000      38.79300000      65.70900000 
H      35.96400000      39.91800000      66.92000000 
H      33.61000000      39.88900000      66.78100000 
H      34.12900000      41.35700000      66.30800000 
H      33.61700000      40.26500000      65.20600000 
N      40.35600000      40.36500000      60.76200000 
C      41.22500000      41.00700000      59.80700000 
C      40.37800000      41.32900000      58.61200000 
O      39.80500000      40.41800000      57.99800000 
C      42.44000000      40.13700000      59.54600000 
C      42.12300000      38.68900000      59.23200000 
C      43.27400000      40.75300000      58.42400000 
H      39.84000000      39.57500000      60.44400000 
H      41.55200000      41.94200000      60.26200000 
H      43.01300000      40.16700000      60.45900000 
H      43.01700000      38.16400000      59.02900000 
H      41.62100000      38.21800000      60.07100000 
H      41.46800000      38.63000000      58.36600000 
H      44.20500000      40.21000000      58.31800000 
H      42.75000000      40.70900000      57.50300000 
H      43.50900000      41.77600000      58.65400000 
N      40.21900000      42.60700000      58.32500000 
C      39.20300000      43.05400000      57.40500000 
C      39.69500000      44.21600000      56.61100000 
O      40.39400000      45.09500000      57.11400000 
C      37.95700000      43.50500000      58.17300000 
C      37.40500000      42.38100000      59.03400000 
C      36.18500000      42.74000000      59.87500000 
O      35.63600000      43.86900000      59.63400000 
O      35.81800000      41.92600000      60.69100000 
H      40.65500000      43.31900000      58.89400000 
H      38.95700000      42.22600000      56.76000000 
H      38.21800000      44.33700000      58.79500000 
H      37.20200000      43.81700000      57.48200000 
H      37.14900000      41.52100000      58.44000000 
H      38.16700000      42.04000000      59.74500000 
N      39.26300000      44.29500000      55.35000000 
C      39.50700000      45.43700000      54.49400000 
C      38.28400000      45.63500000      53.63400000 
O      38.08500000      44.83000000      52.69200000 
C      40.72700000      45.21100000      53.63700000 
C      41.03400000      46.37800000      52.76200000 
O      40.50200000      47.49400000      52.96800000 
N      41.89300000      46.19300000      51.76500000 
H      38.76600000      43.51700000      54.94400000 
H      39.64700000      46.28700000      55.11900000 
H      41.58600000      45.04400000      54.27800000 
H      40.59500000      44.32900000      53.02800000 
H      42.16000000      46.93800000      51.18900000 
H      42.27900000      45.30100000      51.59000000 
H      45.50113801      37.37624159      52.34747729 
H      48.11921350      40.36428713      51.69669608 
H      44.63485800      53.44127979      59.39338293 
H      40.30590181      42.79618463      75.36524101 
H      53.63521892      45.33317821      72.29176541 
H      55.74821726      46.70093739      69.38202207 
H      42.83857179      48.41024608      74.45626343 
H      50.37393426      55.22581924      61.67884524 
H      55.24579820      45.42522094      61.74773028 
H      55.61256400      43.82060695      65.28800722 
H      54.05998797      42.64561120      67.23662526 
H      53.53573397      40.54163862      70.54471504 
H      51.69795961      39.56304376      72.52176183 
H      51.12445475      37.68231523      75.86306214 
H      48.63594076      34.65108069      72.49509884 
H      50.93473386      35.71934343      69.48581713 
H      51.65989565      36.82411317      66.67259876 
H      54.36008321      37.82799409      63.91758283 
H      53.96832660      40.67786373      60.24925984 
H      49.68563686      44.50025100      57.04555950 
H      47.45079639      45.14034236      56.36496375 
H      38.86986710      36.67127306      74.96014981 
H      41.31308614      33.49276708      72.38537927 
H      37.65794249      46.39184245      53.82172720 
