 393 
 
N               201.3671343405       73.9677314122      108.6124809353
C               201.7750412077       72.9817797244      109.5794264963
C               201.0038352344       73.2143179605      110.8813092124
O               200.7707639118       74.3526492023      111.2727164208
C               203.2800790169       73.1346093310      109.9006666506
C               204.1261400156       72.9197667509      108.6812119219
C               204.3224309701       73.9460540521      107.7634450187
C               204.7046144442       71.6838122146      108.4303842627
C               205.0577455986       73.7426558336      106.6138526918
C               205.4462501338       71.4675957124      107.2829945288
C               205.6195162802       72.4933807166      106.3597998278
O               206.3308965976       72.3266361317      105.2151311876
H               201.1622580335       74.8778876451      109.0037142886
H               201.5764697646       71.9843179086      109.1833701445
H               203.4339190507       74.1403432232      110.3017448076
H               203.5246176266       72.3923555127      110.6618296789
H               203.9064332849       74.9242118845      107.9615583194
H               204.5763341169       70.8836365298      109.1452358316
H               205.2348257329       74.5474074928      105.9175890845
H               205.8923499246       70.4989352436      107.1076351053
H               206.6032007968       71.4048433684      105.1282778905
N               213.4359292806       74.5645426101      119.9001290293
C               213.9804493007       74.3263257558      118.5790283725
C               213.2931830444       75.2570565862      117.5755378278
O               212.0993737331       75.5333533277      117.6480580270
C               213.8289349736       72.8639476470      118.1643392951
C               214.9249192846       71.9551438134      118.7348539249
C               214.9583731634       71.9870107617      120.2609061992
C               214.6983083009       70.5302178587      118.2353477411
H               212.5933933767       74.0809846048      120.1765025158
H               215.0406400474       74.5953547361      118.6270914430
H               212.8494225167       72.5076983810      118.4874078439
H               213.8662810133       72.8149372071      117.0748474436
H               215.8898349997       72.3093750029      118.3588734378
H               215.6606400943       71.2470871360      120.6382140746
H               215.2584087711       72.9628870517      120.6329262929
H               213.9731351481       71.7656951017      120.6675762428
H               215.4707955476       69.8702893034      118.6167528128
H               213.7348637802       70.1612226931      118.5777474038
H               214.7129050063       70.4919251445      117.1495760277
N               214.0990962479       75.7367156629      116.6254190304
C               213.6390694859       76.6783106107      115.6219562009
C               213.2551514159       75.8611680768      114.3807038269
O               214.0689963152       75.5725627614      113.5074966838
C               214.7164644335       77.7228756054      115.3316319597
C               214.9217073015       78.7243931257      116.4731681293
C               215.7662992231       78.2087872999      117.6425365225
C               215.7426763086       79.2184377290      118.7885874626
N               216.2732993944       78.6157300123      120.0418025140
H               215.0536225115       75.3927576169      116.5124748423
H               212.7342770385       77.1666892150      116.0028338402
H               215.6478210751       77.2067537435      115.0935412061
H               214.3823282076       78.2800352537      114.4547172036
H               215.3848636231       79.6165213393      116.0497922247
H               213.9393187863       79.0229889471      116.8469568410
H               215.3294744696       77.2821372085      118.0083839620
H               216.7835714135       78.0214587832      117.2948002490
H               216.3193029042       80.1084049468      118.5398383174
H               214.7032401919       79.5072493960      118.9576066783
H               216.2270594277       79.2846069135      120.8191763188
H               215.6718399824       77.7892204845      120.2908449219
H               217.2400615689       78.2914666136      119.9212201559
N               212.0145550713       75.3567767443      114.4085648625
C               211.4590188330       74.6408214333      113.2769765361
C               211.2646881457       75.6008758328      112.0978246367
O               211.0030751019       76.7932489824      112.2595497495
C               210.1351154433       73.9886335721      113.6925691931
C               209.4114953693       73.3216417791      112.5557889037
C               209.6718620511       71.9933363544      112.2419245473
C               208.4473979746       74.0041458794      111.8221061561
C               208.9609377811       71.3473812636      111.2467114465
C               207.7347620035       73.3612419537      110.8241861898
C               207.9793177276       72.0271715461      110.5445375034
H               211.3355670773       75.7493413811      115.0529256852
H               212.1738212834       73.8728439784      112.9587704470
H               210.3639889307       73.2527368281      114.4653114921
H               209.5051490938       74.7634091155      114.1346724041
H               210.4374936129       71.4619336776      112.7865443050
H               208.2473458658       75.0489274126      112.0354106722
H               209.1834293114       70.3160990369      111.0204881435
H               206.9878295911       73.9101305360      110.2655199422
H               207.4014851681       71.5345603545      109.7775490513
N               211.4332105485       75.0292774061      110.9044068140
C               211.4519157870       75.7665996190      109.6598341170
C               210.2757628486       75.3119974548      108.8049976992
O               210.1435839645       74.1339484616      108.4835946912
C               212.7746697233       75.4960451395      108.9498796856
C               212.8071128525       76.3247435642      107.6498131290
O               212.1046020738       75.8932142718      106.7006530416
O               213.5226986517       77.3348506690      107.6362922974
H               211.7191412415       74.0580977457      110.8354317664
H               211.3368574660       76.8329764870      109.8738712643
H               213.6017978325       75.7958225998      109.5933326301
H               212.8408363201       74.4296644509      108.7246323269
N               209.3724345362       76.2454869953      108.4941717450
C               208.1227638855       75.8997842992      107.8632863921
C               208.1087127702       76.1398386864      106.3535728224
O               207.0578700915       76.1741738692      105.7253413887
C               206.9577483998       76.5920781710      108.5516721366
C               206.9776888460       78.1421996267      108.3521175981
O               207.9815822503       78.6309029252      107.7982131230
O               205.9729839859       78.7521982463      108.7672531401
H               209.5190923832       77.2322598491      108.6568652249
H               208.0173150582       74.8071846835      107.9726482936
H               206.0148383519       76.2199739909      108.1528521271
H               206.9827180321       76.4087198557      109.6296606633
N               209.3110507731       76.1411438253      105.7679795902
C               209.4686208990       75.9991605570      104.3421191818
C               209.9405889107       74.5814970470      103.9894956023
O               209.6465041757       74.0481077073      102.9321192506
C               210.4475892059       77.0610835178      103.7904979711
O               210.0898009598       78.3484755541      104.2361273001
C               210.5225190271       76.9846910026      102.2672547628
H               210.1475752622       76.2593344568      106.3243227757
H               208.4780877484       76.1415289198      103.8919317397
H               211.4313879715       76.8872695632      104.2448966939
H               209.1793137775       78.5329116561      103.9722894353
H               211.2269480844       77.7224190001      101.8959229402
H               210.8368352535       75.9925683124      101.9612241490
H               209.5404556339       77.1804843378      101.8433014627
N               210.7047818101       73.9972408580      104.9233970680
C               211.4199492637       72.7677834951      104.6841996753
C               211.0099462525       71.5977444564      105.5811750685
O               211.1132242546       70.4458953510      105.1856748736
C               212.9415143363       72.9803549368      104.9157377942
O               213.1824535277       73.3471762320      106.2583838123
C               213.5141585615       73.9941518289      103.9329551158
H               210.9713922247       74.5444962909      105.7308899895
H               211.2372549273       72.4767111504      103.6452121099
H               213.4344120408       72.0102137125      104.7874113504
H               212.8437231324       74.2536239479      106.3913380699
H               214.5874090340       74.0803976579      104.0777302578
H               213.3058976702       73.6843757086      102.9142594497
H               213.0642918954       74.9704074946      104.1064713917
N               210.6323978531       71.9218759582      106.8219551500
C               210.3838867497       70.9349836556      107.8397604592
C               211.6020210340       70.5977063646      108.7054835063
O               211.5240810539       69.7660508451      109.5963753417
H               210.5545491241       72.8846804835      107.1202096085
H               209.5978650857       71.2984816063      108.5045481683
H               210.0608214337       70.0073020437      107.3586573530
N               212.7403656397       71.2168191638      108.3729204981
C               213.9538300504       71.0505936513      109.1402238453
C               213.8336031506       71.7414011657      110.5016269018
O               212.9459619283       72.5455013174      110.7597268162
C               215.1247768277       71.6375329243      108.3516043560
C               215.4776478633       70.7873060316      107.1327032344
C               216.4460465829       71.5540582408      106.2352487296
C               217.0091367715       70.7346277848      105.0818978326
N               217.7792485692       69.5657867305      105.5714641156
H               212.7290206333       71.9715847855      107.6953398224
H               214.0927102432       69.9769497807      109.3190241076
H               214.8443422919       72.6417977411      108.0261611517
H               215.9989142899       71.7348982887      108.9988092308
H               215.9283988117       69.8601466792      107.4873093606
H               214.5637177859       70.5528549159      106.5847373544
H               215.9288561624       72.4233950791      105.8291179536
H               217.2675842194       71.9319407258      106.8415414636
H               216.1993614669       70.3946296577      104.4348088588
H               217.6803724648       71.3758094332      104.5116516566
H               218.4962656351       69.2872390421      104.8996366948
H               218.2788425925       69.7814433452      106.5553159479
H               217.1628263318       68.7704086731      105.7508577242
N               214.7876751948       71.3990561731      111.3772391387
C               214.9215594384       72.0256543334      112.6667044222
C               216.3221239824       72.6146254050      112.8032887974
O               217.3079081781       72.0484196966      112.3448838670
C               214.7772597629       70.9943277881      113.8060896554
C               213.4512068305       70.2936005765      113.8130813028
C               213.1994207131       69.2705711591      112.9060810554
C               212.4728661248       70.6136097441      114.7434522798
C               212.0104308667       68.5722689079      112.9289423675
C               211.2861205181       69.9027966124      114.7935196248
C               211.0561266638       68.8734690867      113.8917308584
O               209.9085788057       68.1281101018      113.9309823882
H               215.5354588995       70.7644970510      111.1341473171
H               214.1622641683       72.8090829807      112.7368999036
H               215.5704579865       70.2573993372      113.6606038189
H               214.9408512039       71.5105806593      114.7532096797
H               213.9582655918       69.0063755867      112.1877598879
H               212.6415283546       71.4089154090      115.4540277691
H               211.8289761188       67.7941119433      112.2090719723
H               210.5494038519       70.1470800343      115.5464059768
H               209.3648890081       68.4184891426      114.6752293223
N               216.3815657025       73.7200239566      113.5505764479
C               217.6277710868       74.3856689946      113.8458421221
C               217.7030597749       74.6639902720      115.3434258389
O               216.7153736843       74.8076208983      116.0468452741
C               217.7477958753       75.7091318174      113.0595064176
C               217.8407734657       75.3855746788      111.5980646406
C               216.6940599563       75.3024648206      110.8195683112
C               219.0633215397       75.0551529363      111.0283802955
C               216.7591271926       74.8802447871      109.5065697877
C               219.1362791843       74.6165702223      109.7230958359
C               217.9815201616       74.5036292020      108.9564363612
O               218.0206818770       74.0477686418      107.6785758318
H               215.5407789953       74.2681365579      113.7071528033
H               218.4313185836       73.7048809967      113.5437619095
H               216.8587621235       76.3102995090      113.2503619086
H               218.6364397974       76.2465281987      113.3903262718
H               215.7340107562       75.5587325373      111.2452366040
H               219.9683068258       75.1419668973      111.6115759291
H               215.8682351218       74.8233154384      108.8980057652
H               220.0806521284       74.3427884391      109.2787276142
H               218.8004506110       73.4627707787      107.5716954029
N               218.9486530589       74.7852203651      115.8114244586
C               219.2078539857       74.9771761415      117.2198924218
C               220.3810106262       75.9361234554      117.3993174805
O               221.3736695512       75.8641512525      116.6916543858
C               219.5771964094       73.6455262063      117.8818571807
H               219.7370263936       74.5555946713      115.2190213050
H               218.2847574048       75.3732575759      117.6530824155
H               219.8304827469       73.7930440054      118.9265790215
H               218.7391368370       72.9595539500      117.7993610879
H               220.4354209473       73.2097641405      117.3755529569
N               224.4981143742       78.3691014397      115.3257347940
C               223.3942737078       77.5037488168      114.9844486480
C               223.8644079389       76.3576755328      114.0900871209
O               224.7841662969       76.4704431117      113.2892453085
C               222.2598063075       78.2591627970      114.2637496617
C               221.6554561471       79.3120036633      115.1458049679
C               222.3084110884       80.5205766395      115.3634338237
C               220.4367269130       79.0950492492      115.7723621080
C               221.7764776688       81.4729106064      116.2084036168
C               219.8765318742       80.0564962514      116.5949101971
C               220.5545436616       81.2470711354      116.8350697845
O               220.0847012862       82.1921592003      117.6849841114
H               225.0791419847       78.6854528444      114.5635145487
H               223.0126547068       77.0951058818      115.9239075955
H               222.6560731151       78.6958477674      113.3468298126
H               221.5031537652       77.5249775152      113.9834632571
H               223.2415358728       80.7189262979      114.8582799011
H               219.9232941054       78.1599730775      115.6076578296
H               222.2874159915       82.4061515136      116.3812708345
H               218.9063405042       79.8804715004      117.0343795701
H               219.1664967798       82.0058581887      117.9308371089
N               221.9221071988       72.5456808376      112.2330030671
C               220.7286273163       71.7900081377      111.9128718077
C               220.6576274331       70.5478704389      112.8046214804
O               221.6689724307       69.9011783044      113.0736466465
C               220.7483480440       71.3870094997      110.4392818822
C               219.4063491495       70.8419691881      109.9746246573
C               219.2898591354       70.8499993823      108.4413961657
O               218.7817027991       69.8144116757      107.9334191861
O               219.6590416148       71.8456276811      107.8046867848
H               222.7933824987       72.1905145404      111.8695932991
H               219.8662882309       72.4335096878      112.1084990125
H               220.9811868679       72.2696906680      109.8398432626
H               221.5370383816       70.6475427990      110.2737130424
H               219.2255084491       69.8272617982      110.3319920750
H               218.6036011057       71.4831512706      110.3507988195
N               219.4443021290       70.2451592005      113.2608293646
C               219.1890812995       69.0593043395      114.0476883078
C               218.0241311644       68.2960483153      113.4207543540
O               217.1283831709       68.8493611509      112.7975370657
C               218.9456811179       69.3781057440      115.5427155124
C               220.1210852207       70.1853318535      116.0889982796
C               217.6405597889       70.1267809318      115.7845202831
H               218.6306301798       70.7629475905      112.9412338326
H               220.0816563637       68.4285026333      113.9951666824
H               218.9044358406       68.4106367037      116.0526421466
H               220.0270165961       70.3033437073      117.1644695510
H               221.0613129673       69.6858427005      115.8708717806
H               220.1462912312       71.1697592488      115.6259061329
H               217.5511000571       70.3699081807      116.8393727896
H               217.6171680146       71.0513037451      115.2116114908
H               216.7858982539       69.5183034035      115.5008374996
N               226.7110687200       77.0941933878      110.5017068422
C               226.2449541242       77.4022482299      109.1659720421
C               226.5797574785       78.8506259540      108.8052099856
O               226.4592228461       79.7554514713      109.6274048419
C               224.7239203119       77.2272070016      109.0924024128
C               224.2348922500       75.8367276151      109.5192426098
C               222.7080100198       75.8273311028      109.5153755983
C               224.7838638091       74.7386924765      108.6121182678
H               226.0296387179       77.0215277695      111.2440478604
H               226.7589147633       76.7329391717      108.4677474885
H               224.2553302291       77.9699196218      109.7427794509
H               224.3987691342       77.4270115845      108.0697801912
H               224.5692564489       75.6435986484      110.5439475786
H               222.3361162178       74.8885547664      109.9199029233
H               222.3192609808       76.6443184816      110.1184075368
H               222.3286111071       75.9369866030      108.5018706003
H               224.3096949240       73.7877069755      108.8438194621
H               224.5778841770       74.9694565239      107.5693948791
H               225.8569002075       74.6219277464      108.7437775717
N               225.7670532852       82.1674779702      108.0892315659
C               224.5542431703       82.8971203378      108.3657942602
C               223.8116693132       82.4843375446      109.6365035713
O               222.8810813250       83.1588158638      110.0645262021
H               226.5416539567       82.2932504287      108.7242396561
H               224.7634651339       83.9670304589      108.4358189361
H               223.8723212189       82.7327558097      107.5249374382
N               224.2400498014       81.3712711758      110.2354489835
C               223.6454165194       80.9035578398      111.4674862488
C               222.2692672203       80.2530467151      111.2521364434
O               222.1509661331       79.0567384230      111.0289040006
H               225.0240638637       80.8331213181      109.8716674388
H               224.3185488046       80.1560430594      111.8889276764
H               223.5296230147       81.7487812429      112.1531346083
N               221.2366198329       81.0893854789      111.4110508683
C               219.8559630073       80.6407768331      111.4510918526
C               219.0901706278       81.1644544301      110.2351992553
O               218.9817521555       82.3716650900      110.0350514790
C               219.1987207583       81.1983185858      112.7229930800
C               217.7493900708       80.7408185277      112.9320867221
C               217.6743984895       79.2670398374      113.3197168120
C               217.0991996517       81.5805099897      114.0310621175
H               221.4024464506       82.0880930631      111.3634968497
H               219.8926014717       79.5514258193      111.4558059647
H               219.8059376403       80.9054658842      113.5816621059
H               219.2164275757       82.2870448259      112.6378255357
H               217.1914381122       80.8962388619      112.0010231344
H               216.6380295794       78.9889479102      113.4881042265
H               218.0680826797       78.6301906274      112.5328777701
H               218.2458850117       79.0991798489      114.2272862462
H               216.0632515384       81.2756851706      114.1607091707
H               217.6405097844       81.4466585848      114.9631598195
H               217.1110432192       82.6347540975      113.7666173475
N               218.5483641589       80.2760131093      109.3899656126
C               217.7593980995       80.7865486769      108.2766086426
C               216.4831459538       81.4316974736      108.8253315613
O               215.8450687214       80.9470330373      109.7504613493
C               217.4560774129       79.5520121814      107.4226094136
C               217.4578745374       78.4195182791      108.4458241388
C               218.5498186259       78.8235847014      109.4352451910
H               218.3411243480       81.5435131588      107.7415143057
H               216.5030114545       79.6270441958      106.9015206631
H               218.2512972214       79.4097780996      106.6919165323
H               216.4915799045       78.3824627651      108.9484299511
H               217.6445474895       77.4462719540      107.9989194705
H               218.3227582112       78.4472454205      110.4316539741
H               219.5294127810       78.4465928428      109.1225441847
N               216.1000902394       82.5497660786      108.1915723730
C               215.0074274789       83.3705809379      108.6823772913
C               213.6930925847       82.5921944780      108.7883430254
O               212.8485265884       82.8939736598      109.6155245365
C               214.8006438787       84.5716051416      107.7664774585
H               216.7085935427       82.9717463665      107.5057224493
H               215.2381746436       83.7090877040      109.7014803986
H               213.9654526536       85.1599595456      108.1354866132
H               215.6926690346       85.1920389233      107.7581900271
H               214.5740050279       84.2395853303      106.7566546305
N               213.5192101070       81.6292313603      107.8728203539
C               212.3535845378       80.7891388798      107.7904984237
C               212.2167181221       79.7781308710      108.9348178586
O               211.2464171196       79.0210004626      108.9823105563
C               212.3910918072       80.0879190026      106.4088689656
O               213.6881942645       79.5809948634      106.1812472665
C               212.0512743604       81.0734603819      105.2960645843
H               214.2683716550       81.3389199736      107.2550347246
H               211.4440258444       81.4003440963      107.8562961660
H               211.6456500206       79.2804625461      106.4220166349
H               213.7501084989       78.7137110710      106.6349655039
H               212.0878158017       80.5513487302      104.3455484844
H               211.0480651552       81.4575905401      105.4471811263
H               212.7669290879       81.8900012094      105.2893627904
N               213.1439111319       79.8354582602      109.8920641913
C               213.0965915833       79.0317594036      111.0940749808
C               212.6395993719       79.8848872947      112.2862558148
O               213.2681585007       79.9559515736      113.3293682969
C               214.4472623753       78.3760184405      111.3324180779
H               213.9890494199       80.3876172064      109.7776764494
H               212.3198307539       78.2702818485      110.9556150116
H               214.3817477865       77.6840907301      112.1669000676
H               214.7292621922       77.8245826534      110.4381541716
H               215.1933668044       79.1392091483      111.5328511633
N               211.4853203788       80.5343254960      112.0845781284
C               210.8398362132       81.3410013576      113.0860732526
C               210.0887017883       80.5457080590      114.1448512886
O               209.6757907940       81.0895271491      115.1650573083
C               209.7833290416       82.2498606890      112.3842508670
O               209.1017215544       81.4968478601      111.4015037536
C               210.4472976927       83.4591374307      111.7366160780
H               210.9407767918       80.4032473608      111.2409601030
H               211.5850408208       81.9571885690      113.5992080870
H               209.0744676972       82.5815759575      113.1567345369
H               208.3065253147       81.0924657614      111.8163882931
H               209.6876102723       84.0250434821      111.2068869061
H               210.8978258196       84.0770727028      112.5055552228
H               211.2032413038       83.1373064222      111.0268642091
H               202.0230351108       74.0843865083      108.0073480837
H               200.6856509320       72.4342886143      111.4201161989
H               214.0436732632       74.3321928749      120.5219496242
H               220.3465845838       76.6412905773      118.1075223786
H               224.1843840072       79.1152837985      115.7191622260
H               223.4158262405       75.4655226718      114.1433574918
H               221.8445170926       73.3815408936      111.9084761157
H               217.9714716480       67.3015460291      113.5112650057
H               227.1318664766       76.2986385725      110.4970395111
H               226.9033271452       79.0749489441      107.8859810332
H               225.5946147338       81.2841844131      108.0968103470
H               209.9262103701       79.5677247372      114.0139117561
