235
Properties=species:S:1:pos:R:3 pbc="F F F"
N      17.14300000      31.29400000     101.72100000 
C      17.53400000      31.08600000     103.07900000 
C      17.11300000      32.28400000     103.90000000 
O      17.06000000      33.42600000     103.38900000 
C      19.05900000      30.87900000     103.22800000 
O      19.79700000      31.99800000     102.77400000 
H      16.85000000      32.22400000     101.42200000 
H      17.04500000      30.19800000     103.46400000 
H      19.30400000      30.73300000     104.26400000 
H      19.33400000      29.98500000     102.67400000 
H      19.80600000      32.09400000     101.83200000 
N      16.85400000      32.05900000     105.21000000 
C      16.63100000      33.08400000     106.15600000 
C      17.88500000      33.25600000     107.04700000 
O      18.73900000      32.40300000     107.15800000 
C      15.38600000      32.82500000     106.99900000 
C      15.28600000      31.49100000     107.72700000 
O      14.46000000      31.43400000     108.67700000 
O      16.00200000      30.54400000     107.33300000 
H      16.84400000      31.12300000     105.55800000 
H      16.49500000      34.02000000     105.64200000 
H      15.23300000      33.63200000     107.72300000 
H      14.51500000      32.88500000     106.31400000 
N      17.92700000      34.43300000     107.69000000 
C      18.99700000      34.74500000     108.63500000 
C      18.28400000      35.44500000     109.79700000 
O      17.85700000      36.61700000     109.62000000 
C      20.10900000      35.58400000     108.00300000 
C      21.42700000      35.50700000     108.70500000 
C      22.51600000      34.84400000     108.14300000 
C      21.60300000      36.10800000     109.99800000 
C      23.72000000      34.76300000     108.79900000 
C      22.85500000      35.99900000     110.63500000 
C      23.89000000      35.32300000     110.03300000 
H      17.29400000      35.16200000     107.45000000 
H      19.40100000      33.80200000     108.99100000 
H      20.23800000      35.20900000     106.99500000 
H      19.76700000      36.61300000     107.91600000 
H      22.38800000      34.39900000     107.17800000 
H      20.81900000      36.63900000     110.44000000 
H      24.55100000      34.23700000     108.32000000 
H      22.95500000      36.44800000     111.60600000 
H      24.84700000      35.25400000     110.55800000 
N      18.09400000      34.79600000     110.90200000 
C      17.39300000      35.34200000     112.06300000 
C      18.28700000      35.31900000     113.27500000 
O      18.92300000      34.24600000     113.59600000 
C      16.02400000      34.70400000     112.31000000 
C      15.97800000      33.20200000     112.50700000 
C      14.60600000      32.60100000     112.74300000 
O      14.52200000      31.36900000     112.88400000 
O      13.58400000      33.41400000     112.80100000 
H      18.47100000      33.84900000     111.00300000 
H      17.22300000      36.37000000     111.81600000 
H      15.56300000      35.20200000     113.15100000 
H      15.38200000      34.96600000     111.43300000 
H      16.38900000      32.68100000     111.64300000 
H      16.59600000      32.90900000     113.35200000 
N      18.36400000      36.42100000     113.92800000 
C      19.10300000      36.67700000     115.16000000 
C      18.09700000      37.18900000     116.21100000 
O      16.94000000      37.47200000     115.86600000 
C      20.22200000      37.71000000     114.83100000 
C      21.18900000      38.11700000     115.95000000 
C      22.29900000      39.06000000     115.45300000 
C      23.33400000      38.34200000     114.59200000 
N      24.37700000      39.33200000     114.12200000 
H      17.85000000      37.22500000     113.59400000 
H      19.53800000      35.75600000     115.50800000 
H      20.77300000      37.25300000     114.02800000 
H      19.75400000      38.59300000     114.43200000 
H      20.65100000      38.64600000     116.73500000 
H      21.62800000      37.22900000     116.41800000 
H      21.85800000      39.86900000     114.90400000 
H      22.80100000      39.48100000     116.31600000 
H      23.86400000      37.57900000     115.14400000 
H      22.90300000      37.90700000     113.70200000 
H      25.07300000      38.86700000     113.53400000 
H      23.95200000      40.06700000     113.55600000 
H      24.85400000      39.75800000     114.88300000 
N      17.22700000      40.89500000     114.53700000 
C      17.05600000      41.13600000     113.10100000 
C      16.62200000      39.87500000     112.37200000 
O      17.13400000      38.77600000     112.67700000 
C      18.38100000      41.60000000     112.45700000 
C      18.93900000      42.85800000     113.11600000 
O      18.19500000      43.72400000     113.57600000 
N      20.24300000      42.99500000     113.12700000 
H      17.97100000      40.26800000     114.76600000 
H      16.31000000      41.91900000     112.98800000 
H      19.11900000      40.79300000     112.55600000 
H      18.25000000      41.79600000     111.43100000 
H      20.67500000      43.80800000     113.48600000 
H      20.87900000      42.27500000     112.75500000 
N      15.71700000      40.00200000     111.37300000 
C      15.28100000      38.87800000     110.57000000 
C      15.28800000      39.29500000     109.08000000 
O      14.64700000      40.31400000     108.74000000 
C      13.87500000      38.46300000     110.95000000 
O      13.47300000      37.40800000     110.07900000 
H      15.30200000      40.87200000     111.21200000 
H      15.95300000      38.05300000     110.70800000 
H      13.88700000      38.12100000     111.99800000 
H      13.19700000      39.31400000     110.88700000 
H      12.57900000      37.13900000     110.19500000 
N      16.02600000      38.53500000     108.27000000 
C      16.14200000      38.80700000     106.83200000 
C      15.81900000      37.50400000     106.05700000 
O      16.13400000      36.41100000     106.54500000 
C      17.60900000      39.23700000     106.47300000 
C      18.07800000      40.48500000     107.21300000 
C      18.90300000      40.15900000     108.46700000 
C      18.94800000      41.35500000     106.26500000 
H      16.53700000      37.79000000     108.63500000 
H      15.47200000      39.56800000     106.55200000 
H      18.27600000      38.40800000     106.64500000 
H      17.60700000      39.41400000     105.39000000 
H      17.22800000      41.07900000     107.50200000 
H      19.19700000      41.07500000     108.98500000 
H      18.33500000      39.55500000     109.17200000 
H      19.80100000      39.61800000     108.21000000 
H      19.30100000      42.25900000     106.79400000 
H      19.80900000      40.82100000     105.92400000 
H      18.37400000      41.68800000     105.41300000 
N      15.24100000      37.63800000     104.89300000 
C      14.84200000      36.47300000     104.04900000 
C      15.24900000      36.74600000     102.64700000 
O      14.92500000      37.80500000     102.05600000 
C      13.32000000      36.25700000     104.18000000 
C      12.78300000      34.99600000     103.54700000 
O      13.56600000      33.99700000     103.41100000 
O      11.55300000      34.99900000     103.24300000 
H      14.88600000      38.54100000     104.58800000 
H      15.36000000      35.62500000     104.44600000 
H      13.08700000      36.21400000     105.24100000 
H      12.79900000      37.10700000     103.77700000 
N      16.00800000      35.77900000     102.02400000 
C      16.56200000      35.93000000     100.69100000 
C      15.92300000      34.88200000      99.77500000 
O      15.91400000      33.68300000     100.11900000 
C      18.11400000      35.66400000     100.70700000 
C      18.84000000      36.33200000     101.87800000 
C      18.71700000      36.08100000      99.35000000 
C      18.75900000      37.85600000     101.98000000 
H      16.22500000      34.96800000     102.53600000 
H      16.35200000      36.91200000     100.34000000 
H      18.24700000      34.61600000     100.81400000 
H      18.45000000      35.90500000     102.81700000 
H      19.87000000      36.03400000     101.82400000 
H      19.78800000      35.93300000      99.36700000 
H      18.32000000      35.51900000      98.53100000 
H      18.54000000      37.14900000      99.14200000 
H      19.27600000      38.20900000     102.84900000 
H      19.22000000      38.33100000     101.10700000 
H      17.73300000      38.21200000     102.03600000 
N      13.62400000      40.37800000      98.67400000 
C      14.38200000      40.63900000      99.85700000 
C      13.40200000      41.16400000     100.91100000 
O      12.76900000      42.20100000     100.66000000 
C      15.45900000      41.67300000      99.54100000 
C      16.35300000      42.10600000     100.70900000 
C      17.48700000      41.34400000     101.05300000 
C      16.09400000      43.25600000     101.42900000 
C      18.30400000      41.74000000     102.06300000 
C      16.92700000      43.65500000     102.45100000 
C      18.04700000      42.91000000     102.78000000 
H      13.04600000      41.12200000      98.30900000 
H      14.82600000      39.70900000     100.20100000 
H      16.08600000      41.24800000      98.76300000 
H      14.98700000      42.54800000      99.13000000 
H      17.70100000      40.44400000     100.48900000 
H      15.22600000      43.85500000     101.17100000 
H      19.18500000      41.15500000     102.31900000 
H      16.71200000      44.56900000     102.99400000 
H      18.70500000      43.23200000     103.56400000 
N      13.24900000      40.46700000     102.02400000 
C      12.33100000      40.86600000     103.08100000 
C      13.10800000      41.08800000     104.38900000 
O      14.00000000      40.27400000     104.69100000 
C      11.20800000      39.86300000     103.32900000 
C      10.35900000      39.58100000     102.09200000 
C       9.23300000      38.56300000     102.30000000 
O       9.07600000      38.05100000     103.44400000 
O       8.52100000      38.32000000     101.28500000 
H      13.76900000      39.61500000     102.16900000 
H      11.89400000      41.82300000     102.78000000 
H      11.64600000      38.92800000     103.70100000 
H      10.56700000      40.23300000     104.12100000 
H       9.93100000      40.47400000     101.71300000 
H      10.99700000      39.17400000     101.28500000 
N      12.74600000      42.07500000     105.15200000 
C      13.35700000      42.33900000     106.45000000 
C      12.29800000      42.86300000     107.42900000 
O      11.45300000      43.67700000     107.02600000 
C      14.51700000      43.32900000     106.37100000 
H      12.10900000      42.78600000     104.81300000 
H      13.72300000      41.37700000     106.82700000 
H      14.98300000      43.46000000     107.31100000 
H      15.26800000      42.93100000     105.66300000 
H      14.17100000      44.27000000     105.99000000 
N      12.41600000      42.46000000     108.68300000 
C      11.54000000      42.92900000     109.76000000 
C      12.41000000      43.17900000     110.99800000 
O      12.33200000      42.45500000     111.98800000 
C      10.40400000      41.96500000     110.03600000 
H      13.07900000      41.74600000     108.89200000 
H      11.14100000      43.89100000     109.43900000 
H       9.76000000      42.34800000     110.82000000 
H       9.80800000      41.85100000     109.14000000 
H      10.77100000      41.00500000     110.33700000 
N      13.26000000      44.20500000     110.93000000 
C      14.17900000      44.54500000     111.99400000 
C      13.50700000      45.51700000     112.97600000 
O      12.37200000      45.91500000     112.81300000 
C      15.56400000      45.01600000     111.49600000 
C      15.58400000      46.48600000     110.96600000 
C      16.08700000      44.05800000     110.40400000 
C      17.02100000      46.99600000     110.75900000 
H      13.22000000      44.82500000     110.13100000 
H      14.34900000      43.62200000     112.55200000 
H      16.22600000      44.95700000     112.32500000 
H      15.02300000      46.56100000     110.06300000 
H      15.09400000      47.12800000     111.70600000 
H      17.15400000      44.20900000     110.25500000 
H      15.94100000      43.03000000     110.69900000 
H      15.58800000      44.21800000     109.46800000 
H      17.00200000      48.05300000     110.52900000 
H      17.60700000      46.86600000     111.66800000 
H      17.50600000      46.48800000     109.96300000 
H      17.83004700      31.09129387     101.17613612 
H      18.37906704      37.29122871     117.16493264 
H      17.40323718      41.67320469     114.95333871 
H      15.51530485      35.16007618      98.90525389 
H      14.18173465      40.16305932      98.00114596 
H      14.00662583      45.84124603     113.77926742 
