 448 
 
N                37.7835631778       46.1375425090       20.0809585845
C                37.5778688531       47.5284856395       19.7442079425
C                36.9077463075       47.6511927744       18.3626260677
O                36.1887737638       48.6083114318       18.1017949240
C                38.9072065370       48.2855885652       19.7801625918
C                39.4898467430       48.3851767865       21.2022679704
C                38.8287701027       49.4596023861       22.0498221536
O                37.9074313159       49.2140995044       22.8243274487
N                39.3018577225       50.7000871110       21.8950810136
H                38.7312791014       45.8002350771       20.1524316220
H                36.8823023339       47.9719340544       20.4667378237
H                39.6242035387       47.7589973213       19.1466238016
H                38.7553373074       49.2830550368       19.3680967704
H                39.3528216003       47.4337468075       21.7160467543
H                40.5565050832       48.5954483792       21.1330274532
H                40.1039974306       50.8933624244       21.3205879554
H                38.9436276115       51.4350330990       22.4911720099
N                34.2555223733       46.7000199294       15.4800759771
C                32.9108104394       46.1756501061       15.3264199953
C                32.9774719137       44.7467540489       14.7822980024
O                32.2996894061       43.8481663234       15.2522571881
C                32.0930622687       47.0669916598       14.3857258424
C                30.6616029421       46.5412447186       14.2303983017
C                29.9317567211       46.6624051506       15.5560346510
O                29.7359597978       47.7504757012       16.0790271045
N                29.4978817896       45.5149998292       16.0922371997
H                34.4659111062       47.5914076774       15.0582908490
H                32.4291806277       46.1169702549       16.3106831729
H                32.0486795112       48.0732757578       14.8040734686
H                32.5737888808       47.1157743937       13.4077908654
H                30.1488942569       47.1682205480       13.5017886199
H                30.6652209543       45.5093706295       13.8878138539
H                29.7219683253       44.6097887891       15.6991017501
H                29.0814315875       45.5401304041       17.0126548432
N                33.5096006442       42.1169560601       17.3603028368
C                32.3473306201       41.9981580523       18.2234591748
C                31.2924961401       41.1051241099       17.5559055485
O                30.7999449937       40.1392299641       18.1265560632
C                31.7622321101       43.3750215238       18.5492504397
C                32.6923885988       44.2001825300       19.4438666965
C                31.9697751977       45.3825541860       20.1024844348
N                31.5740515371       46.4159202314       19.1606216974
C                32.3561431728       47.4120359918       18.7443990323
N                33.6420806655       47.4800915793       19.0639181524
N                31.8237709806       48.3367550296       17.9451911028
H                33.8809661490       43.0435114027       17.1857740992
H                32.6426056854       41.4748667175       19.1424875055
H                31.5707622388       43.9017827668       17.6152010401
H                30.8108604893       43.2250441469       19.0620596515
H                33.0747657649       43.5719043185       20.2487713211
H                33.5470650032       44.5656508135       18.8756314963
H                31.0558807978       45.0235798719       20.5776629036
H                32.6224222372       45.8082172272       20.8689510432
H                30.5773899439       46.5524151654       19.0156196403
H                34.1190588736       46.7504448245       19.5808042573
H                34.2374319976       48.1998282650       18.6758543976
H                30.8331395345       48.3073391014       17.7204089106
H                32.3667740400       49.1352394834       17.6636892063
N                30.9297738449       41.5177780032       16.3399431954
C                29.8956878625       40.8549149291       15.5735089634
C                30.2074987248       39.3638221768       15.3982968732
O                29.4100270119       38.4855204723       15.7047946317
C                29.7753059839       41.5404444744       14.2028954939
O                29.4835793531       42.9057809561       14.4306555826
C                28.6918334243       40.8784871497       13.3555307052
H                31.4026206728       42.3042098037       15.9038777974
H                28.9433671479       40.9236604437       16.1154270079
H                30.7530732125       41.4583673005       13.7045445522
H                29.3107743621       43.3054499662       13.5673370282
H                28.6575047915       41.3310683869       12.3684043158
H                28.9047428992       39.8198312625       13.2487257091
H                27.7283196309       40.9891571395       13.8463917895
N                28.5788208610       42.3219916318       23.7012654875
C                29.0004997424       42.6311260294       22.3573590508
C                28.2193558901       43.7544880170       21.6737930825
O                28.7341945865       44.3358541415       20.7171960188
C                28.8343382169       41.4009448890       21.4525613145
C                29.8070612757       40.3054948458       21.7869169154
C                31.1582603707       40.4653652093       21.5120454378
C                29.3704580551       39.1183259582       22.3541927313
C                32.0582576523       39.4586381742       21.8041019040
C                30.2681902619       38.1030360929       22.6350065328
C                31.6142435311       38.2758699120       22.3695568895
H                28.0640144415       41.4673676791       23.8592240230
H                30.0512892565       42.9443940698       22.3912140709
H                27.8075735243       41.0481869649       21.5603476387
H                28.9743840895       41.7213229792       20.4166097287
H                31.4893482179       41.3905179855       21.0702489093
H                28.3233269906       39.0038508390       22.5882873206
H                33.1082241983       39.5933955404       21.5994003132
H                29.9190080086       37.1779969769       23.0675411203
H                32.3159467930       37.4929840905       22.6093180131
N                26.9684364008       43.9487950578       22.0767312560
C                25.9832901027       44.6965030721       21.3170842217
C                26.1422310997       46.2201077597       21.4598943909
O                25.3357812197       46.9367456522       22.0283247896
C                24.5841660063       44.2759639441       21.7124437222
C                23.5190103308       44.7736851452       20.6758863734
O                23.9410877708       45.2298954266       19.5981810891
O                22.3292991017       44.6388783792       21.0171742672
H                26.6447811994       43.5810324884       22.9663332361
H                26.1323328372       44.4736502060       20.2502507707
H                24.5119584525       43.1881701368       21.7691495898
H                24.3172142240       44.6821193914       22.6887808309
N                27.2460968860       46.6662794513       20.8405925702
C                27.6857356758       48.0410183891       20.9124182433
C                28.1308588780       48.4461257821       19.5057837438
O                29.0339160704       47.8596079255       18.9311274775
C                28.8578775699       48.2169868021       21.9082707354
O                28.4438401649       47.6500125202       23.1359850884
C                29.2215125907       49.6956990978       22.0348350814
H                27.9309649805       45.9660094365       20.5494515281
H                26.8272838426       48.6131355667       21.2756435665
H                29.7210962914       47.6461980375       21.5291715947
H                28.9014983563       48.0920628981       23.8586134159
H                30.0509481931       49.8224078004       22.7293516487
H                29.5174134074       50.0959651702       21.0694286483
H                28.3694812632       50.2559776557       22.4124669405
N                27.4390947685       49.4540834844       18.9696476677
C                27.6683971388       50.0073940437       17.6534948129
C                28.0622645447       51.4784295180       17.8008338827
O                27.8607766872       52.0938605035       18.8370265746
C                26.3657901851       49.9726846178       16.8176392695
C                25.6894356166       48.5981223907       16.7992118960
C                26.4477769316       47.5462688387       15.9966252212
N                26.3078016344       47.8066550864       14.5708701108
C                26.5775165413       46.9467600482       13.5975659581
N                27.1025282635       45.7524711533       13.8572143215
N                26.3569608118       47.3021389652       12.3316249563
H                26.7063570183       49.8871087750       19.5124856254
H                28.4654406404       49.4177552598       17.1901809789
H                25.6640803149       50.6880901614       17.2499826100
H                26.6111516903       50.2907158406       15.8055912464
H                25.5772249101       48.2245974059       17.8173561845
H                24.6821191710       48.7013319537       16.3944077560
H                27.5038256775       47.5607213035       16.2772779669
H                26.0251266422       46.5681173722       16.2400399251
H                25.8986278147       48.6955628424       14.3227149808
H                27.2568590462       45.4384414603       14.8021729738
H                27.2030419341       45.0757408404       13.1197194474
H                25.9629324528       48.1994797884       12.0995641662
H                26.5586352429       46.6675823196       11.5772759246
N                28.4621204173       52.0745279998       16.6613552917
C                28.7885752437       53.4862886664       16.6126724743
C                28.1395814463       54.1588593643       15.3843931715
O                28.6590844815       55.0872300396       14.7877562167
C                30.3070192816       53.7250129153       16.6194510662
C                30.9028876453       53.2130358438       17.9217543767
O                31.0749792495       52.0278891618       18.1343484876
N                31.1307842842       54.1652226283       18.8477839129
H                28.8618123385       51.5001283698       15.9305167635
H                28.3497929460       53.9448702384       17.5089793390
H                30.7677229648       53.1856816850       15.7894950845
H                30.5048747387       54.7872206410       16.4825168440
H                31.6164667618       53.9210169081       19.6989683822
H                31.0940746016       55.1415908947       18.6088819593
N                26.9514379990       53.6510103272       15.0429232730
C                26.2453183518       54.0622902168       13.8403232084
C                26.4467580844       55.5595178890       13.5676647496
O                26.8352913520       55.9534734782       12.4830522499
C                24.7516740339       53.7264900844       13.9835119311
C                23.8797558885       54.3349373075       12.8827581316
C                24.1852213586       53.7728508753       11.4953983681
N                23.2816079451       54.3873414325       10.5351826150
C                23.2171649859       54.0823112464        9.2428035600
N                23.9131887468       53.0625739225        8.7479343320
N                22.3824942277       54.7555960554        8.4529623991
H                26.5703058004       52.8857357363       15.5844555845
H                26.6884466685       53.5429846629       12.9809731868
H                24.6384986549       52.6424838942       13.9782853979
H                24.4018229451       54.1044391613       14.9444471874
H                22.8381362157       54.1302235548       13.1312020750
H                24.0240637129       55.4164299628       12.8676641337
H                25.2229281992       53.9988642475       11.2291459210
H                24.0222944830       52.6919383976       11.4966999743
H                22.7881779459       55.2066870687       10.8578535064
H                24.6321504825       52.6204335981        9.2951471362
H                23.8795492052       52.8535239216        7.7626298939
H                21.8432789964       55.5285287246        8.8045519052
H                22.3232716073       54.5497462910        7.4689184519
N                28.3199588863       58.0608745769       14.8602014325
C                29.6491777503       58.6073475452       14.6694520964
C                30.1127908547       58.2609900994       13.2581660760
O                30.6540262723       59.0714920280       12.5066099979
C                30.6536214486       58.0443458166       15.6872444768
C                30.1723750128       58.1570474446       17.1416510925
C                31.9923581639       58.7542681679       15.4995164567
C                29.9416156220       59.5845276128       17.6302450371
H                28.0626670487       57.8535226001       15.8129442932
H                29.6199738155       59.7027794218       14.7453843986
H                30.8022809122       56.9813755056       15.4556301120
H                29.2591965503       57.5729167552       17.2817715600
H                30.9411595731       57.6989966917       17.7646881966
H                32.6913136927       58.4789933063       16.2842242246
H                32.4318452992       58.4843503016       14.5411974417
H                31.8555065764       59.8345193935       15.5111606108
H                29.4986579936       59.5795009156       18.6240180224
H                30.8792846445       60.1317897077       17.6942010485
H                29.2915278041       60.1526871174       16.9668040593
N                29.8962081788       56.9932185240       12.8987894534
C                30.4953929649       56.4674013412       11.6947871957
C                29.9465654689       57.1478872142       10.4466416441
O                30.6416579255       57.3001172372        9.4479263001
C                30.2712809962       54.9583551714       11.5963639079
C                31.0425222155       54.2103458161       12.6808851230
C                32.5486964926       54.6231310125       12.6633278148
O                33.2423850649       54.1666687992       11.7300174426
O                32.9341810922       55.3706007917       13.5868646280
H                29.5147206936       56.3396555796       13.5709060174
H                31.5768398810       56.6765784825       11.7039906456
H                29.1982978581       54.7697017957       11.6780077470
H                30.6284428190       54.6374052537       10.6166193347
H                30.6496512381       54.4522950503       13.6670936480
H                30.9861576148       53.1364974232       12.5002201865
N                31.1155037923       64.3839073138       21.6155239281
C                30.6845117661       63.2192175188       20.8718727528
C                31.8035898185       62.1809346332       20.7977673392
O                31.5793308305       60.9833710316       20.9263680096
C                30.2560231331       63.6240595271       19.4610780717
C                28.9116561294       64.3451208499       19.4619535964
C                28.7146849441       65.1584439245       18.1510132356
O                29.5976785705       66.0258336364       17.9148326578
O                27.7094489445       64.9452526881       17.4673302819
H                31.0862731249       65.2799143955       21.1429364749
H                29.8459792090       62.7371288428       21.3952851642
H                31.0244867954       64.2753948767       19.0339121544
H                30.1924998005       62.7388127521       18.8232591400
H                28.0899779724       63.6359681537       19.5609841618
H                28.8642098315       65.0597462993       20.2876899483
N                33.0165059885       62.6849958364       20.5653294165
C                34.1760812588       61.8370488759       20.3786722281
C                34.4314295260       61.0276270331       21.6517576093
O                34.5147625496       59.8067720067       21.6323141693
C                35.4081968588       62.6937824835       20.0113780156
O                35.1877189807       63.4139795810       18.8169572250
C                36.6337006330       61.8112134840       19.8039901589
H                33.1202078374       63.6787246945       20.4036084582
H                33.9683871557       61.1211582892       19.5717711938
H                35.5834270712       63.3927529250       20.8422265079
H                34.5699137899       64.1396684322       18.9885270171
H                37.5082299451       62.4368543170       19.6577306874
H                36.7786832760       61.1579121293       20.6586370408
H                36.4879162481       61.2037037052       18.9159327690
N                34.5911570536       61.7513859749       22.7601554241
C                34.9031692819       61.0980275771       24.0143999582
C                33.8473867632       60.0469535133       24.3543379581
O                34.1675515696       58.9476564425       24.7962986832
C                35.0088255737       62.1059846153       25.1572306692
C                36.1656567344       63.1068358200       25.0181304667
C                36.1205148843       64.0752387954       26.2003385690
C                37.5234653774       62.4113113811       24.9606878570
H                34.4459024477       62.7542250269       22.7564052587
H                35.8393775873       60.5389712800       23.8901927767
H                34.0604565516       62.6457921024       25.2094953654
H                35.1264702669       61.5390910067       26.0829978021
H                36.0211612712       63.6717119413       24.0936261884
H                36.9082790513       64.8179307275       26.1115132737
H                35.1614876070       64.5856990296       26.2359088514
H                36.2551544193       63.5331932778       27.1327849592
H                38.3180484828       63.1522529831       24.9664236736
H                37.6510464652       61.7558011026       25.8184649793
H                37.6244420708       61.8175141019       24.0560198528
N                32.5810014497       60.4402224556       24.2072948014
C                31.4770467168       59.5173750450       24.3980571536
C                31.7305286942       58.2331310846       23.6095730945
O                31.7126101492       57.1303881213       24.1496301808
C                30.1623239006       60.1298848491       23.9431066929
C                29.0808597077       58.9930736649       23.8828483005
O                28.3425380791       58.8722163898       24.8778076786
O                29.0621353527       58.3019728918       22.8518017981
H                32.3627649947       61.3498126356       23.8185054151
H                31.4131023331       59.2327687920       25.4581249949
H                29.8433741016       60.9075831766       24.6371599528
H                30.2797538145       60.5461969807       22.9417904462
N                32.0032272117       58.4219702464       22.3215667607
C                32.1488681922       57.3070710326       21.4122635045
C                33.2181242685       56.3570607055       21.9531623919
O                33.0078310250       55.1572538682       22.0927067489
C                32.5390815302       57.8309250658       20.0384360432
H                31.8773203889       59.3320037341       21.8947777959
H                31.1976671111       56.7579198988       21.3708948175
H                32.6901192408       57.0094834223       19.3446733818
H                31.7567190372       58.4939434822       19.6796199361
H                33.4603961763       58.4007113773       20.1152674876
N                34.3892253915       56.9487782582       22.1863067888
C                35.5495375457       56.2299627904       22.6648887407
C                35.1651106756       55.3973823160       23.8866910683
O                35.2902474468       54.1775354995       23.8976640288
C                36.6797450770       57.2264891268       22.9989817819
O                36.8912829913       58.1170331014       21.9337664457
C                37.9530789349       56.4812102611       23.3828117720
H                34.4939315703       57.9499090918       22.0474861017
H                35.8888165330       55.5257834424       21.8907228471
H                36.3421832428       57.8594008586       23.8270713560
H                37.2799980873       57.6329335083       21.1880479923
H                38.7405901471       57.1898511632       23.6217148370
H                37.7854784248       55.8398080139       24.2456965473
H                38.2832615262       55.8485798900       22.5615646433
N                34.6685254200       56.1063723778       24.8991769774
C                34.3086480002       55.4947629066       26.1626399074
C                33.4707741084       54.2375854874       25.9305181904
O                33.7260703187       53.1707015813       26.4788019364
C                33.5720005385       56.5479433290       26.9936771733
C                33.0783416416       56.0781497838       28.3634241974
C                34.1179755531       55.3242241364       29.1825595881
N                35.3501285547       56.0685899314       29.3383698990
C                36.5356009510       55.5039473669       29.5288936166
N                36.6445076035       54.2069426072       29.7932598552
N                37.6171198386       56.2930439855       29.6260420460
H                34.4691396058       57.0934629491       24.7851781276
H                35.2363231401       55.1557634336       26.6461239110
H                34.2482181799       57.3986844512       27.0937091628
H                32.7186205246       56.8918675968       26.4047660956
H                32.7154182810       56.9477129463       28.9137378172
H                32.2432612478       55.3872871593       28.2424956592
H                33.6890515239       55.0806928034       30.1593025203
H                34.3272013115       54.3797094924       28.6816770830
H                35.2879520860       57.0693226846       29.2276182450
H                35.8563112866       53.5696478560       29.6770683799
H                37.5561352322       53.7788697472       29.7800256576
H                37.5663326777       57.2394041023       29.2822779346
H                38.5267164528       55.8651023779       29.6275977963
N                32.4116764102       54.3977889180       25.1347958621
C                31.4883264604       53.3037790860       24.9185827353
C                32.2312637063       52.0546539566       24.4406650390
O                31.9499871140       50.9380027564       24.8652973467
C                30.4203458722       53.7060394681       23.8986185050
C                29.4005828967       54.6536434365       24.5321219315
C                28.3387017399       55.1637159301       23.5548197820
N                27.5174114977       54.1066399386       23.0035817346
C                27.6527820718       53.5269141862       21.8132646633
N                28.6314409348       53.8463570642       20.9733301023
N                26.7808220262       52.5999308342       21.4230569971
H                32.2129818973       55.2945046191       24.7071640776
H                31.0264422735       53.0362699198       25.8805732044
H                30.9349260380       54.1927074216       23.0682882436
H                29.9277202351       52.8005606052       23.5411884217
H                28.9174127827       54.1483789564       25.3697585373
H                29.9133043156       55.5329271134       24.9228787123
H                27.6931742324       55.8627787151       24.0907076138
H                28.8076532394       55.7456322261       22.7611756697
H                26.7923380610       53.7609467136       23.6175383211
H                29.3563768974       54.4890212785       21.2384956194
H                28.6868880674       53.3525239481       20.0887149750
H                25.9715273685       52.3663526956       21.9726204683
H                26.8990688495       52.2190913762       20.4893136049
N                33.0880111838       52.2605836879       23.4381216849
C                33.8361727777       51.1579303772       22.8731718347
C                34.7754471422       50.5529386980       23.9197326485
O                34.7487299080       49.3485584488       24.1633667465
C                34.5870127348       51.5768692757       21.6024843464
C                35.2444903154       50.3466599004       20.9844974168
C                33.6294622334       52.2350516231       20.6113677322
H                33.4001846622       53.2011746255       23.2354421280
H                33.1092943529       50.3694018280       22.6331154558
H                35.3581354820       52.2985785607       21.8921737482
H                35.7528594849       50.6124145321       20.0619059441
H                35.9696408763       49.9278460247       21.6768291798
H                34.4870222845       49.5960595424       20.7783564890
H                34.1583630239       52.4535746946       19.6877381361
H                32.7933979709       51.5757129390       20.3955552175
H                33.2625818015       53.1705181394       21.0233385211
N                35.5793893933       51.4062012751       24.5479756240
C                36.5280399924       50.9336083710       25.5324956102
C                35.8310749201       49.9684285455       26.4820537379
O                36.3037109857       48.8820950480       26.8117000022
C                37.0665727336       52.0857361996       26.3697707921
C                37.7070284641       53.2386813954       25.5180732027
O                38.2654817433       52.9248185425       24.4543164614
O                37.6104260243       54.3759134782       26.0158209424
H                35.6037393524       52.3909055893       24.3176101731
H                37.3524858753       50.4099860693       25.0274342877
H                36.2696620106       52.5165728460       26.9799041824
H                37.8417152535       51.7081394517       27.0417794126
N                34.6791643578       50.4424090980       26.9564044433
C                33.9573265463       49.7874299600       28.0173836879
C                33.4257043900       48.4470747907       27.5344734632
O                33.4868052085       47.4465720502       28.2459510087
C                32.8216333373       50.6793060864       28.4821571846
C                33.3219694129       52.0130175087       29.1335512447
O                34.5486957490       52.1507745531       29.3278182833
O                32.4280760336       52.8226929267       29.4239763203
H                34.3936657809       51.3860916979       26.7323372536
H                34.6360696998       49.5907188637       28.8612297192
H                32.1895313360       50.9494751105       27.6345352769
H                32.2066525656       50.1630918858       29.2212861437
N                32.8743722898       48.4556251287       26.3234471311
C                32.3804117090       47.2434537662       25.6944514432
C                33.4915304246       46.1922936793       25.6946020161
O                33.3191975714       45.0710866294       26.1587908499
C                31.9046051118       47.5397992928       24.2802076362
H                32.8348846992       49.3160775339       25.7890712029
H                31.5578785036       46.8388529332       26.2997142192
H                31.3403240786       46.6915982631       23.9016758328
H                31.2733016708       48.4230070468       24.3102360328
H                32.7570596599       47.7427277058       23.6378890090
N                34.6377770700       46.5755360134       25.1343398395
C                35.7732573365       45.6795026384       25.0623810765
C                36.0213855744       45.0048833413       26.4081118324
O                36.1556444026       43.7921396522       26.5084805240
C                37.0191312124       46.4447252568       24.5720276723
O                36.8154862768       46.7353999193       23.2062857061
C                38.2860130350       45.5992396910       24.7396899145
H                34.7571029913       47.5246612889       24.7990107528
H                35.5557674173       44.8872507762       24.3316132816
H                37.1063267329       47.3689890790       25.1571844448
H                37.1344201782       47.6419102178       23.0324542633
H                39.1160238501       46.1186146674       24.2683000679
H                38.5174293942       45.4508487540       25.7896177490
H                38.1258667804       44.6365547952       24.2631420691
N                36.1560372198       45.8432493612       27.4399504407
C                36.4423314429       45.3399807507       28.7681807334
C                35.3645409434       44.3445882764       29.1932560879
O                35.6638005230       43.2403142014       29.6507205617
C                36.5691463927       46.4859425629       29.7826131463
C                36.7087017191       45.9350377827       31.2007520933
C                37.7744801323       47.3603470284       29.4423769024
H                36.0264039634       46.8391577643       27.3204357731
H                37.3861238058       44.7767598840       28.7349186596
H                35.6592250014       47.0935069421       29.7195907879
H                36.8236952654       46.7553691943       31.9034994938
H                35.8339689139       45.3610514006       31.4952716987
H                37.5817114869       45.2921951685       31.2769757620
H                37.8670728182       48.1537518649       30.1795115355
H                38.6862225662       46.7688587275       29.4546616147
H                37.6604282972       47.8255898621       28.4668885723
N                34.1129606353       44.7554848886       29.0407694513
C                32.9816538060       43.9412083476       29.4413005220
C                33.0669916061       42.5546827408       28.7927581533
O                32.9690846783       41.5336506805       29.4682306504
C                31.6831428394       44.6314996519       29.0495107037
H                33.9113023493       45.6788597107       28.6699298878
H                33.0162693853       43.7838001346       30.5291908459
H                30.8312405256       44.0311795366       29.3557414679
H                31.6275922495       45.6065254924       29.5270282421
H                31.6521146469       44.7717848313       27.9724391028
H                37.4145568415       45.9649867458       20.8834913454
H                37.0579739837       46.9460589349       17.6696484969
H                34.4385199847       46.8059904165       16.3548800295
H                33.5887272066       44.5295412514       14.0212555808
H                34.1953468537       41.6539391835       17.7143755808
H                31.0887316381       39.0781721907       15.0216901314
H                29.3004195005       42.2578403684       24.2352879767
H                26.2582262204       56.2284746410       14.2866589082
H                27.7078617962       58.6468158520       14.5568699727
H                29.0033932136       57.4798648696       10.4319129963
H                30.5971467720       64.4836764068       22.3444629706
H                33.2042977534       42.4719816498       27.8056879676
