283
Properties=species:S:1:pos:R:3 pbc="F F F"
N      36.73900000      21.61200000      14.48300000 
C      36.89900000      20.57200000      15.52400000 
C      35.75000000      19.57100000      15.56500000 
O      34.60800000      19.93700000      14.95600000 
C      37.19000000      21.11200000      16.89100000 
C      38.64300000      21.13700000      17.20300000 
S      38.98400000      22.29000000      18.65300000 
C      39.79900000      21.04400000      19.80600000 
H      35.92500000      22.11700000      14.59400000 
H      37.77800000      19.95600000      15.15800000 
H      36.79700000      22.14500000      16.85300000 
H      36.66200000      20.63200000      17.58200000 
H      38.95700000      20.15900000      17.46200000 
H      39.23700000      21.46600000      16.36700000 
H      40.06400000      21.58100000      20.69200000 
H      39.07300000      20.25200000      20.04500000 
H      40.67600000      20.63000000      19.33600000 
N      35.89700000      18.53100000      16.25100000 
C      34.73700000      17.62400000      16.53200000 
C      34.72000000      17.43500000      17.98600000 
O      35.77600000      17.33200000      18.74000000 
C      34.80600000      16.37400000      15.77100000 
O      35.89600000      15.52500000      16.33400000 
C      35.01400000      16.52600000      14.34300000 
H      36.71200000      18.32000000      16.65300000 
H      33.91100000      18.15700000      16.25100000 
H      33.84600000      15.81900000      15.97600000 
H      36.08200000      14.81900000      15.80800000 
H      34.96300000      15.57400000      13.79700000 
H      34.22900000      17.16000000      13.88900000 
H      35.99900000      16.98500000      14.13100000 
N      33.57000000      17.33900000      18.55700000 
C      33.14200000      17.12800000      19.89000000 
C      32.04900000      16.06500000      19.95600000 
O      31.47800000      15.78800000      18.92700000 
C      32.62900000      18.47900000      20.48900000 
C      33.46100000      19.63500000      20.23100000 
C      34.86300000      19.63000000      20.26300000 
C      32.88800000      20.86900000      19.76000000 
C      35.61100000      20.67900000      19.96600000 
C      33.65800000      21.87300000      19.52400000 
C      35.03000000      21.88200000      19.58900000 
O      35.73000000      22.97700000      19.27400000 
H      32.68900000      17.35700000      17.87000000 
H      34.01600000      16.80600000      20.45900000 
H      31.62800000      18.61400000      20.13400000 
H      32.52300000      18.29600000      21.60500000 
H      35.32100000      18.66800000      20.57200000 
H      31.81900000      20.89700000      19.74200000 
H      36.69200000      20.63600000      20.01100000 
H      33.17300000      22.92000000      19.17900000 
H      36.74400000      22.81500000      19.24200000 
N      31.75200000      15.50600000      21.12300000 
C      30.72800000      14.53100000      21.19200000 
C      29.97600000      14.64300000      22.45400000 
O      30.43100000      15.20500000      23.46200000 
C      31.37100000      13.16200000      21.14300000 
O      31.88200000      12.74400000      22.40100000 
H      32.26000000      15.79500000      21.95000000 
H      30.11400000      14.63000000      20.32800000 
H      30.58000000      12.38300000      20.89300000 
H      32.10300000      13.08400000      20.36500000 
H      32.48400000      13.36000000      22.77400000 
N      28.73400000      14.14000000      22.41500000 
C      27.81700000      14.17100000      23.49700000 
C      27.27400000      12.77800000      23.76100000 
O      26.42900000      12.29700000      22.87900000 
C      26.70500000      15.15800000      23.25500000 
C      27.23300000      16.61700000      23.13300000 
C      25.63300000      15.12100000      24.36100000 
C      26.45600000      17.36800000      22.12200000 
H      28.36000000      13.74200000      21.55700000 
H      28.35700000      14.46800000      24.39200000 
H      26.23600000      14.85400000      22.35800000 
H      27.19400000      17.03000000      24.05500000 
H      28.28100000      16.53700000      22.80400000 
H      24.91200000      15.86500000      24.23700000 
H      25.18800000      14.16300000      24.44200000 
H      26.16600000      15.28100000      25.34300000 
H      26.71900000      18.42300000      22.13700000 
H      26.64000000      17.05400000      21.12600000 
H      25.41300000      17.31400000      22.27000000 
N      22.13400000       6.95600000      20.82800000 
C      21.86300000       7.71500000      19.65400000 
C      22.53700000       7.14800000      18.47900000 
O      23.34400000       6.28500000      18.53700000 
C      22.26400000       9.22100000      19.93100000 
C      23.43500000       9.40100000      20.82300000 
C      24.80100000       8.94700000      20.17600000 
C      23.59100000      10.85300000      21.21900000 
H      22.92000000       6.26400000      20.69300000 
H      20.80500000       7.74400000      19.48100000 
H      22.46400000       9.69700000      18.98700000 
H      21.43500000       9.71900000      20.40500000 
H      23.33200000       8.82400000      21.75900000 
H      25.60200000       9.05800000      20.84200000 
H      24.71400000       7.88100000      19.91700000 
H      24.95600000       9.45900000      19.30100000 
H      24.44500000      11.02500000      21.92000000 
H      23.76500000      11.48000000      20.36100000 
H      22.71500000      11.19600000      21.71600000 
N      22.18100000       7.71400000      17.29200000 
C      22.75300000       7.21300000      16.06200000 
C      24.26300000       7.60700000      16.04500000 
O      24.60100000       8.75200000      16.26700000 
C      22.02000000       7.82500000      14.87800000 
H      21.54300000       8.42100000      17.25300000 
H      22.70900000       6.09500000      16.03100000 
H      22.50600000       7.52600000      13.95700000 
H      21.00500000       7.46200000      14.90200000 
H      22.04000000       8.85700000      14.94200000 
N      25.08500000       6.72900000      15.58800000 
C      26.48200000       6.99000000      15.52600000 
C      26.77900000       8.10500000      14.57300000 
O      27.48800000       9.03800000      14.90300000 
C      27.15100000       5.70800000      14.98300000 
O      28.52900000       6.04700000      14.78400000 
H      24.74200000       5.70700000      15.41000000 
H      26.85700000       7.22100000      16.43200000 
H      27.10900000       4.94200000      15.73300000 
H      26.72300000       5.39500000      14.11900000 
H      29.02600000       5.38800000      14.28000000 
N      26.18700000       8.08000000      13.43800000 
C      26.43900000       9.01200000      12.33700000 
C      26.22700000      10.52600000      12.90100000 
O      27.04500000      11.33100000      12.58400000 
C      25.55000000       8.79800000      11.17900000 
O      25.70700000       9.83900000      10.28000000 
H      25.52300000       7.31200000      13.16800000 
H      27.49800000       8.97300000      12.06500000 
H      25.82400000       7.79500000      10.74800000 
H      24.53900000       8.69700000      11.55500000 
H      25.09300000       9.78000000       9.55500000 
N      25.13500000      10.60200000      13.54800000 
C      24.71900000      12.00300000      13.98100000 
C      25.38300000      12.44100000      15.20100000 
O      25.23800000      13.55600000      15.61300000 
C      23.19800000      11.91700000      14.29200000 
C      22.50700000      11.47000000      12.99800000 
O      22.25500000      10.22100000      12.76900000 
O      22.24800000      12.38600000      12.18700000 
H      24.47900000       9.88600000      13.71100000 
H      24.89000000      12.63900000      13.21900000 
H      23.02700000      11.18500000      14.98400000 
H      22.87600000      12.89500000      14.59600000 
N      26.21400000      11.58400000      15.83800000 
C      26.69000000      11.90300000      17.14900000 
C      27.79700000      13.03400000      17.06300000 
O      27.93800000      13.78100000      17.97000000 
C      27.36600000      10.63400000      17.70200000 
O      27.74800000      10.83600000      19.03300000 
H      26.32000000      10.64500000      15.49800000 
H      26.02100000      12.23300000      17.78500000 
H      26.64600000       9.85100000      17.62500000 
H      28.24600000      10.34400000      17.08600000 
H      28.08100000      10.13800000      19.46600000 
N      28.50600000      13.00400000      15.93000000 
C      29.58000000      13.92200000      15.69400000 
C      29.33000000      14.73600000      14.49200000 
O      28.71800000      14.20600000      13.48400000 
C      30.92600000      13.30000000      15.64900000 
C      31.05300000      12.36100000      14.46300000 
C      31.67500000      12.78300000      13.29800000 
C      30.49900000      11.07200000      14.52600000 
C      31.65400000      11.89100000      12.27300000 
C      30.50700000      10.29200000      13.40800000 
C      31.10900000      10.69000000      12.27900000 
H      28.30300000      12.42300000      15.18900000 
H      29.57900000      14.64900000      16.60600000 
H      31.71200000      14.05900000      15.55900000 
H      31.09800000      12.76300000      16.56300000 
H      32.07400000      13.67700000      13.25400000 
H      30.02100000      10.77400000      15.41000000 
H      32.17200000      12.25100000      11.27900000 
H      30.04100000       9.31400000      13.48200000 
H      31.10700000      10.03500000      11.40700000 
N      29.71600000      16.01300000      14.48500000 
C      29.62700000      16.89200000      13.35400000 
C      30.86000000      17.62300000      13.24800000 
O      31.97500000      17.03100000      13.40600000 
C      28.31100000      17.70500000      13.41200000 
C      27.06000000      16.97800000      13.66200000 
C      26.71800000      16.76200000      15.11000000 
C      25.87100000      17.57500000      12.99800000 
H      30.12500000      16.35700000      15.30000000 
H      29.54500000      16.23800000      12.46200000 
H      28.43400000      18.48300000      14.12700000 
H      28.26500000      18.23900000      12.43400000 
H      27.20700000      15.93600000      13.17500000 
H      25.97100000      16.11600000      15.24600000 
H      27.60500000      16.33700000      15.66400000 
H      26.53700000      17.70800000      15.53300000 
H      24.97400000      17.04000000      13.15900000 
H      25.74000000      18.59100000      13.36000000 
H      26.00100000      17.68400000      11.88400000 
N      30.83000000      18.94600000      12.98600000 
C      32.07000000      19.72600000      12.91200000 
C      31.63500000      21.09500000      13.43600000 
O      30.54600000      21.58100000      13.17500000 
C      32.42700000      19.89400000      11.39700000 
C      33.08300000      18.63700000      10.90900000 
C      32.22100000      17.54700000      10.45300000 
O      30.87900000      17.78000000      10.28600000 
N      32.71800000      16.35400000      10.27100000 
H      29.98800000      19.37400000      12.84400000 
H      32.80000000      19.30700000      13.46100000 
H      31.64800000      20.18100000      10.82800000 
H      33.21700000      20.68000000      11.40100000 
H      33.69600000      18.89800000       9.94200000 
H      33.85300000      18.20100000      11.60700000 
H      33.64600000      16.18200000      10.43500000 
H      32.13700000      15.61500000       9.97400000 
N      32.53700000      21.59700000      14.26200000 
C      32.19500000      22.84200000      15.04000000 
C      33.30600000      23.81100000      14.90400000 
O      34.53500000      23.37800000      14.81800000 
C      32.08300000      22.42400000      16.57200000 
C      31.48200000      23.59400000      17.29300000 
C      31.03900000      21.22100000      16.60500000 
H      33.36700000      21.14400000      14.48300000 
H      31.31600000      23.19400000      14.68800000 
H      32.97800000      22.08100000      16.90400000 
H      31.25700000      23.24100000      18.34100000 
H      32.17900000      24.32800000      17.39000000 
H      30.58200000      23.94200000      16.87800000 
H      30.84600000      20.98100000      17.63700000 
H      30.17400000      21.42400000      16.12500000 
H      31.48000000      20.34700000      16.16000000 
N      22.36300000      20.24200000      18.70300000 
C      22.28000000      18.79500000      18.92700000 
C      21.34100000      18.45500000      19.95700000 
O      20.60600000      17.43700000      19.95800000 
C      23.69100000      18.20900000      19.12200000 
C      24.00000000      17.10500000      18.06800000 
C      25.43700000      16.65700000      18.38900000 
C      23.08800000      15.95300000      18.13600000 
H      23.13800000      20.74000000      18.90100000 
H      21.82800000      18.35800000      17.96400000 
H      24.37800000      19.00700000      19.07900000 
H      23.72300000      17.81700000      20.10000000 
H      24.00600000      17.58000000      17.13100000 
H      25.72000000      15.90500000      17.67600000 
H      26.14100000      17.41800000      18.37900000 
H      25.47100000      16.15800000      19.36900000 
H      23.34300000      15.23000000      17.46900000 
H      23.02600000      15.53200000      19.15800000 
H      22.03200000      16.27400000      17.90300000 
N      35.81500000      16.65500000      23.97100000 
C      36.50100000      17.19800000      22.79300000 
C      37.44900000      16.15700000      22.26900000 
O      38.04500000      15.46800000      22.94000000 
C      37.31200000      18.44800000      23.31400000 
C      38.36200000      18.14500000      24.35800000 
C      38.01100000      19.16700000      22.17900000 
H      36.25000000      16.49100000      24.74000000 
H      35.83200000      17.53200000      22.11600000 
H      36.60200000      19.07500000      23.76400000 
H      38.80800000      19.04200000      24.69100000 
H      37.99300000      17.60800000      25.22100000 
H      39.15700000      17.53200000      23.93300000 
H      38.39700000      20.09800000      22.51100000 
H      38.73000000      18.56900000      21.71900000 
H      37.24100000      19.43000000      21.39300000 
N      37.53400000      16.07200000      20.86800000 
C      38.48800000      15.19800000      20.37300000 
C      39.90100000      15.72000000      20.82300000 
O      40.09300000      16.80500000      21.06800000 
C      38.47400000      15.13700000      18.84800000 
C      39.24100000      14.04900000      18.22100000 
O      39.62400000      13.11300000      18.98800000 
O      39.38800000      14.13100000      16.97100000 
H      36.94800000      16.61500000      20.34300000 
H      38.38000000      14.19500000      20.74400000 
H      37.35700000      15.02100000      18.56000000 
H      38.73200000      16.10200000      18.42800000 
H      37.43108969      22.18595363      14.52286347 
H      27.56335291      12.27455656      24.57513733 
H      22.36718986       7.51075659      21.49722912 
H      33.11354717      24.79197127      14.87836275 
H      22.23266545      20.41886062      17.83022670 
H      21.23457273      19.05077267      20.75307045 
H      35.16208987      17.21981211      24.22535340 
H      40.66797601      15.08300955      20.90040134 
