 465 
 
N                21.4084197578       11.4187079791       17.3951846851
C                22.8294184559       11.3074092857       17.1908235311
C                23.2486816331       10.0330135495       16.4534795924
O                24.4030829664        9.8721199254       16.0806697380
C                23.6038974952       11.3549923964       18.5095131191
C                23.7371376459       12.7291325780       19.1832089686
C                24.4982385181       13.7265569343       18.3117398402
C                22.3905104354       13.3155050773       19.5947185575
H                21.0386166332       11.2315500983       18.3187054753
H                23.1400532467       12.1319478069       16.5360218743
H                23.1302087732       10.6456877622       19.1923709968
H                24.6025506053       10.9674985311       18.2928853330
H                24.3225209447       12.5484266746       20.0929501825
H                24.7536013330       14.6085096021       18.8915712760
H                25.4100995992       13.2766073419       17.9280258351
H                23.8827377388       14.0433132684       17.4737393492
H                22.5421847707       14.1871895246       20.2259367162
H                21.8242484252       13.6194039033       18.7196712815
H                21.7970551279       12.5889008171       20.1436446160
N                23.4196281164       10.1222939228       11.9772348206
C                24.4785580714       10.8907912376       11.3666500616
C                25.7589070427       10.0510003298       11.3254661893
O                25.8079651857        8.9248759171       11.7983799836
C                24.5814312933       12.2540896582       12.0670701901
C                24.8312357751       12.2006423335       13.5785015488
C                26.2874942963       11.8951955449       13.9082162784
C                24.4395220724       13.5382879759       14.2016804629
H                23.4568671112       10.0061431101       12.9786487463
H                24.1640788415       11.0497557938       10.3264954192
H                25.3681610305       12.8577176815       11.6120168091
H                23.6251914085       12.7529482724       11.8910293672
H                24.2064617133       11.4229896810       14.0334897582
H                26.3921776204       11.7586661273       14.9819543555
H                26.6142769548       10.9755636825       13.4299316775
H                26.9180325156       12.7234266209       13.5904638062
H                24.6120138867       13.5107059816       15.2741138899
H                25.0485741559       14.3389809629       13.7859538241
H                23.3875513258       13.7519761482       14.0245738694
N                26.7806151382       10.5828757441       10.6229485319
C                28.0186460935        9.8593866672       10.4799017409
C                29.0566241619       10.3464362723       11.4933417025
O                29.0126593007       11.4561215722       12.0032596515
C                28.5761707034       10.0055364174        9.0457676881
O                28.9718278117       11.3586562559        8.8669281547
C                27.5454958689        9.5658544821        8.0147018462
H                26.7822320664       11.5605977596       10.3798074136
H                27.7768550563        8.8099546042       10.6785857176
H                29.4698165504        9.3670329031        8.9616490507
H                28.8703413864       11.5805603781        7.9318361266
H                27.9663907135        9.6166877935        7.0129519829
H                27.2394237419        8.5422001025        8.2085637449
H                26.6658897683       10.2028090213        8.0681615750
N                30.0473104004        9.4770009795       11.7351832475
C                31.1496119578        9.8082881176       12.6259453089
C                31.7650479137       11.1521838994       12.2113475507
O                32.1501341689       11.9733531358       13.0258942300
C                32.2006965248        8.7062062233       12.5779782971
H                29.9981475617        8.5323739151       11.3827892223
H                30.7706591907        9.9335544312       13.6479279359
H                33.0236772653        8.9554874817       13.2406911879
H                31.7674293525        7.7628657976       12.9005455868
H                32.5900092162        8.5979236104       11.5687392422
N                31.8806000749       11.3197465396       10.8884783829
C                32.4133032600       12.5315667958       10.2955319455
C                31.5954435524       13.7384152291       10.7593190504
O                32.0945669679       14.7206651253       11.2932590512
C                32.3859536985       12.3901068738        8.7750953115
C                33.0336156717       13.5746154275        8.0729112027
C                34.5963998729       13.5978604823        8.1963400032
O                35.1338782653       12.7575911309        8.9413504052
O                35.1715938617       14.4765931202        7.5252293623
H                31.5339957689       10.6133503896       10.2578592404
H                33.4502877637       12.6793033947       10.6194551006
H                32.9505748658       11.4924898684        8.5112464873
H                31.3510181235       12.2753141484        8.4447162474
H                32.8064700501       13.5587790973        7.0051936674
H                32.6650197101       14.5196781205        8.4776379100
N                30.2834205918       13.6381910743       10.5190510770
C                29.3603115526       14.7029510375       10.8621882308
C                29.5453707672       15.1190580149       12.3249382913
O                29.6888950910       16.2998686536       12.6314537458
C                27.9290237679       14.2553757404       10.5835656235
C                26.9437702890       15.4141218654       10.5481457442
C                26.6379979605       16.0402732652       11.9496928573
O                26.9584562731       15.3842890984       12.9569959798
O                26.0606442070       17.1459636340       11.9312129239
H                29.8931916581       12.7931094047       10.1219680994
H                29.5973728698       15.5872634488       10.2506579139
H                27.9192201931       13.7426654743        9.6181058405
H                27.6267610227       13.5532768299       11.3645357492
H                27.2929955679       16.2167454047        9.8955796129
H                25.9822173695       15.0715481117       10.1549252061
N                29.6550880360       14.1091788648       13.1822205985
C                29.7133452466       14.2914789693       14.6227369864
C                30.7434899496       15.3590822803       14.9740757467
O                30.5320773367       16.2036848576       15.8414819372
C                30.0359641087       12.9159026342       15.2259361900
C                30.2097156114       12.8155832262       16.7485244318
C                31.5713835631       13.3341624681       17.2145337929
C                29.0647102456       13.4946172331       17.4991062291
H                29.4496151826       13.1751764935       12.8512411467
H                28.7348271554       14.6543036179       14.9689822825
H                29.2127643591       12.2612414431       14.9243201361
H                30.9409771786       12.5512840576       14.7356258925
H                30.1716763903       11.7418142707       16.9653274334
H                31.7765916862       12.9740887494       18.2185503870
H                32.3492751641       12.9568761254       16.5562387358
H                31.5961858755       14.4186137218       17.1846801249
H                29.0811381788       13.2129560101       18.5480958857
H                29.1322628613       14.5744771795       17.3995565419
H                28.1089454827       13.1829687353       17.0826619465
N                31.9227606402       15.2598725725       14.3548831042
C                32.9783180957       16.2241175729       14.6045692547
C                32.5425110209       17.6478670333       14.2447574784
O                32.6857006518       18.5770610464       15.0290436684
C                34.2496823924       15.8366737428       13.8462171937
C                35.2830660397       16.9685857841       13.8739566972
C                36.7067471348       16.4819120847       13.5935951224
C                37.3445828673       15.9075408516       14.8555483766
N                38.7406040913       15.4672008613       14.5837374769
H                32.0251515820       14.6274334930       13.5728452158
H                33.1693940752       16.2365689227       15.6859271577
H                34.6467126723       14.9294767043       14.3001535610
H                33.9822560329       15.5976996946       12.8147002424
H                35.0026051198       17.7045816111       13.1217314348
H                35.2519568241       17.4651661289       14.8440843085
H                36.6714202153       15.7375050840       12.7968911256
H                37.2954993243       17.3295609299       13.2433676490
H                37.3648972475       16.6747592149       15.6304917986
H                36.7698416376       15.0538009906       15.2131859851
H                39.1822377370       15.0943985139       15.4369678613
H                38.7427680683       14.7355173843       13.8579160186
H                39.3002022038       16.2618268403       14.2390502880
N                32.0752924042       17.8143712687       13.0036411480
C                31.5548273633       19.1084268387       12.6071325760
C                30.5930253923       19.6520611539       13.6684907345
O                30.6714645907       20.8066354422       14.0684501683
C                30.8323812164       19.0342586986       11.2630291528
C                31.7671998872       18.7736334334       10.0785547361
C                32.7644648121       19.8989984683        9.7852596041
C                32.1374485497       21.2665088496        9.5348057904
N                31.2769107941       21.2512569465        8.3181678190
H                31.8160179138       17.0069253617       12.4536340220
H                32.3888339252       19.8196911477       12.5628314609
H                30.1061030575       18.2199459107       11.3237318011
H                30.2723514733       19.9615292632       11.1298333732
H                32.3307977483       17.8585357993       10.2718282781
H                31.1489980122       18.5675069457        9.2032534115
H                33.4464598397       19.9961700761       10.6274323445
H                33.3620707214       19.5997808861        8.9232182592
H                31.5290635114       21.5751299469       10.3854016933
H                32.9331431918       21.9949982349        9.3792050250
H                30.9370018190       22.1989879765        8.1016236105
H                31.8091561949       20.8907007596        7.5118628193
H                30.4601502218       20.6445930368        8.4726110366
N                29.6824281157       18.7801865165       14.1039583529
C                28.6611254000       19.1745056426       15.0499288278
C                29.3175734848       19.8364342024       16.2648995807
O                28.9334915445       20.9168880708       16.7019503176
C                27.8350136083       17.9541958126       15.4736581523
C                26.6990908579       18.3778989695       16.3590557404
C                25.4629716883       18.6864304411       15.8052097433
C                26.8708026157       18.5140440505       17.7305671052
C                24.4218701818       19.1218203785       16.6056391038
C                25.8342085039       18.9580571109       18.5315032234
C                24.6062360304       19.2644061617       17.9706383340
H                29.6124341711       17.8580766945       13.6894639819
H                27.9982562782       19.9260029028       14.5942732198
H                27.4471999579       17.4705847576       14.5724469844
H                28.4898322384       17.2443051632       15.9807856320
H                25.3200656578       18.5690930713       14.7380313371
H                27.8263194156       18.2731372971       18.1692603998
H                23.4658171564       19.3552667357       16.1606559797
H                25.9800258787       19.0689282529       19.5949441708
H                23.7939805591       19.6098397416       18.5917914525
N                30.3062100506       19.1333129506       16.8158011318
C                30.9972581855       19.6013123682       18.0035308246
C                31.4791814374       21.0439404952       17.8160560386
O                31.2581331052       21.9155175892       18.6433317827
C                32.2038988313       18.7109268704       18.3080670979
C                31.8237100856       17.3446380440       18.8834376779
C                31.0476802831       17.4773351515       20.2001422034
C                31.3284888922       16.3425393846       21.1750287466
N                30.9310830580       15.0257669866       20.6105351677
H                30.5625864700       18.2239667964       16.4480954844
H                30.2961775442       19.6238107330       18.8456614568
H                32.7641904902       18.5751560581       17.3828025764
H                32.8399163697       19.2345814665       19.0220568100
H                31.2414648710       16.7949551078       18.1432104064
H                32.7512469616       16.7997377252       19.0673562941
H                31.3519483396       18.3977132314       20.6970916358
H                29.9765981731       17.5376866719       20.0091491386
H                32.3874943892       16.2947342274       21.4310813108
H                30.7759511179       16.4915764277       22.1022324179
H                31.1591047008       14.2717152156       21.2929497173
H                29.9234900142       15.0000046574       20.4091185059
H                31.4489246101       14.8322441886       19.7435296149
N                32.2259929957       21.2437459348       16.7251106256
C                32.7357805345       22.5692178282       16.4308879948
C                31.6071357859       23.5975227708       16.4404466167
O                31.6494896447       24.6301976022       17.0983829954
C                33.4251260360       22.6022514605       15.0648591370
C                34.9059447918       22.2057300207       15.1213665822
C                35.3881581591       21.8144869546       13.7260990670
C                35.7466041714       23.3599530525       15.6639122362
H                32.3141484601       20.5191243128       16.0227895895
H                33.4239926735       22.8617861612       17.2336111298
H                32.8730956161       21.9334422124       14.4026952864
H                33.3493479026       23.6120003750       14.6580445836
H                35.0093765936       21.3440813432       15.7866180927
H                36.4527462394       21.5991425168       13.7399185748
H                34.8574245788       20.9326569537       13.3776285793
H                35.2133155789       22.6294765443       13.0285461886
H                36.7893402925       23.0685085543       15.7567955178
H                35.6900860908       24.2144943796       14.9929165223
H                35.3941301597       23.6795953155       16.6416270320
N                30.6087581169       23.3273160449       15.5897288282
C                29.5921115558       24.3271959159       15.3600777960
C                28.8942807390       24.7116544770       16.6573866066
O                28.5645276890       25.8853402971       16.8706825032
C                28.5735680854       23.8611600468       14.3167334586
C                27.7343304306       25.0250667614       13.7855110556
C                28.5254220884       25.9221768952       12.8310338236
C                27.7146570920       27.1461762680       12.3917611618
N                28.3651575903       28.4058843941       12.8498662112
H                30.5502292515       22.4410745798       15.1015656879
H                30.0949866381       25.2399197381       15.0139069568
H                29.1060737307       23.3853952312       13.4919657631
H                27.9288624378       23.1074554301       14.7719715975
H                26.8689977332       24.6291315380       13.2526630568
H                27.3598679915       25.6117370241       14.6256028569
H                29.4350195350       26.2569779198       13.3275698740
H                28.8117400391       25.3246232864       11.9679473440
H                27.6054853977       27.1835653991       11.3090038454
H                26.7065850581       27.0944702462       12.8029375801
H                27.7786134283       29.2142566294       12.6110825350
H                28.4997280030       28.3939419155       13.8950552893
H                29.2827637988       28.5128297927       12.3969209348
N                28.6506529867       23.7314340852       17.5112188889
C                27.9295606122       23.9236711789       18.7605600452
C                28.3249332523       25.2543218629       19.4013764239
O                27.4913311144       26.0975065955       19.7189188825
C                28.2211013136       22.7105329233       19.6522254336
C                27.4826844677       22.6497080325       20.9971775211
C                28.0112102598       23.6554863324       22.0172886233
C                25.9738618235       22.8108772767       20.8236826083
H                28.8867113127       22.7726318098       17.2691098063
H                26.8543820955       23.9873372438       18.5492941521
H                27.9334063650       21.8334049794       19.0668808925
H                29.2979926523       22.6536973859       19.8208094869
H                27.6683469945       21.6474767559       21.3969138505
H                27.5573774626       23.4636468182       22.9860568109
H                29.0903836217       23.5750594193       22.1112467382
H                27.7526826928       24.6697218307       21.7290475800
H                25.4616902402       22.5904593999       21.7570318618
H                25.7248053980       23.8320740962       20.5442316640
H                25.5966174184       22.1341843548       20.0592375979
N                29.6337356078       25.4111181188       19.6166161987
C                30.1988286267       26.5578300402       20.3031127443
C                29.6230075845       27.8936444639       19.8324707840
O                29.5075987567       28.8365124598       20.6026233840
C                31.7218078450       26.5204284748       20.1057812330
C                32.4672841850       27.7588724698       20.6345926568
C                33.7745771734       27.3312692187       21.2999969181
C                32.7570652379       28.7522115287       19.5102550450
H                30.2832340274       24.7212376049       19.2623889128
H                29.9574579099       26.4932481622       21.3729651364
H                32.0784460668       25.6304533551       20.6254503488
H                31.9226234675       26.3904522991       19.0410163892
H                31.8367635429       28.2619480608       21.3708919478
H                34.3331694825       28.2069509774       21.6199481094
H                33.5709845236       26.7049144547       22.1636982141
H                34.3655481490       26.7719449774       20.5802937087
H                33.2946370112       29.6165222890       19.8934711734
H                33.3587051131       28.2885897105       18.7320576754
H                31.8331030229       29.1089355291       19.0635827245
N                29.3828660989       27.9745696029       18.5151299184
C                28.9459096000       29.1911824037       17.8801751294
C                27.4396723909       29.4755243314       17.9173402679
O                27.0193545086       30.5352377747       17.4608296251
C                29.4213176895       29.2102922500       16.4175315803
O                28.7435379817       28.2990797397       15.5858534954
H                29.2915705753       27.1142239438       17.9836770775
H                29.4171814435       30.0280290174       18.4124709504
H                29.2255726399       30.2045545404       16.0109178649
H                30.4998720736       29.0075310329       16.4062498094
H                28.6997859349       27.4144461391       16.0081862052
N                26.6304731745       28.5197529814       18.3762413594
C                25.2038378280       28.7899527688       18.4031485086
C                24.9083240631       29.8693590231       19.4480672830
O                25.4357276004       29.8616120225       20.5555623885
C                24.3889174803       27.5077115496       18.6512438799
C                24.4337849935       27.0458344096       20.1027289278
C                22.9368799903       27.7215245001       18.2290635491
H                26.9735868374       27.7122041588       18.8862168710
H                24.9462678882       29.1782953759       17.4132284948
H                24.8379370332       26.7342558566       18.0177288621
H                23.9190656084       26.0925421320       20.1952737169
H                25.4569883757       26.9306427408       20.4444025565
H                23.9347672801       27.7715326312       20.7391937485
H                22.3763399584       26.7977543518       18.3482702578
H                22.4787846882       28.4746872537       18.8661206109
H                22.8668041793       28.0337664656       17.1894953191
N                24.0309846786       30.8231025250       19.1043577151
C                23.5505706910       31.7381567671       20.1303576041
C                22.8864900783       30.9414070214       21.2546404910
O                22.3588551102       29.8589716627       21.0563797327
C                22.5286301163       32.6167032268       19.4005405298
C                23.0515212494       32.6228234279       17.9672095929
C                23.5465744283       31.1887378269       17.7833658049
H                24.3889793113       32.3182909139       20.5342769978
H                21.5489519254       32.1375656784       19.4403197052
H                22.4583687471       33.6096334669       19.8362701818
H                22.2883846721       32.8882372198       17.2403160498
H                23.8860255281       33.3178048555       17.8776945627
H                22.7264188546       30.5313830579       17.4794037786
H                24.3573218385       31.1311378400       17.0552464069
N                29.1609312601       10.5724205401       21.4332554141
C                27.7615283170       10.9452406272       21.2796255440
C                27.0144061390       10.7346116039       22.5989073306
O                26.3052732156       11.6035748856       23.0866822439
C                27.1058773442       10.1569305259       20.1553006967
H                29.5979233217        9.9668302555       20.7534900902
H                27.7015026380       12.0202729368       21.0641579102
H                26.0482340042       10.3976915711       20.0892623806
H                27.5747467032       10.3939854574       19.2047275589
H                27.1878306500        9.0849320694       20.3196105310
N                27.9380637447       13.2140778916       25.3223956792
C                27.3787829400       14.5024136833       24.9637249347
C                25.9353359545       14.5887802810       25.4524749459
O                25.5451217026       15.5393277624       26.1158004561
C                27.4634660156       14.7038350207       23.4476928158
C                26.6359429972       15.9011550897       22.9547612564
C                27.1404745284       17.2189875619       23.5401826924
C                26.6607930523       15.9514144545       21.4280191486
H                28.2656668819       12.6136625773       24.5751361725
H                27.9351898569       15.2769183670       25.5038155757
H                28.5137752298       14.8262455005       23.1801773251
H                27.0942153409       13.7928476273       22.9720101259
H                25.6043983054       15.7323083748       23.2810119812
H                26.6234946962       18.0516249426       23.0718930459
H                26.9513850370       17.2544710322       24.6086752727
H                28.2056260708       17.3308945928       23.3626036580
H                25.9821412051       16.7177839678       21.0640899620
H                27.6602992368       16.1859422438       21.0761751804
H                26.3484046254       14.9968817176       21.0118658930
N                20.5090686096       23.7212144114       15.9912328321
C                21.8314620872       23.3650266777       15.5139010309
C                21.7082211587       22.4030557117       14.3302695834
O                22.3807992267       22.5111293107       13.3063689183
C                22.6961492120       22.7404449232       16.6217993508
C                24.1108779984       22.5176721067       16.0897041007
C                22.7499773910       23.6348067324       17.8591581327
H                20.2564884582       23.5199851925       16.9514146846
H                22.3211559300       24.2720116045       15.1318972217
H                22.2500897985       21.7778767239       16.8921085119
H                24.7129454019       21.9843376568       16.8198833969
H                24.0975878960       21.9397167646       15.1695715658
H                24.5823885290       23.4744876380       15.8766785147
H                23.4450693375       23.2106889800       18.5790354674
H                23.1005917730       24.6273465045       17.5887655305
H                21.7794361875       23.7233125606       18.3389807856
N                20.8402985410       21.4086833446       14.5214452763
C                20.6657201024       20.3836974544       13.5170102136
C                20.2614591634       20.9934315346       12.1787849272
O                20.8730619202       20.7099705240       11.1490306893
C                19.6100331165       19.3620074012       13.9356618262
C                20.0236292188       18.4638124131       15.1087060807
C                18.8281526680       17.5971480101       15.4988761847
C                21.2117097666       17.5716060602       14.7591683127
H                20.2903952252       21.3483517015       15.3723709664
H                21.6344947611       19.8962879558       13.3427255340
H                18.7061109988       19.9104291457       14.2046869100
H                19.3883332983       18.7341425237       13.0706793619
H                20.2886186657       19.1003444935       15.9574060814
H                19.0860451489       16.9394725619       16.3239046845
H                17.9860188413       18.2164894140       15.7973421895
H                18.5227239265       16.9820065525       14.6571497521
H                21.4620546505       16.9338456922       15.6027278708
H                20.9732518148       16.9333632098       13.9112296450
H                22.0941129024       18.1560022538       14.5136720149
N                20.4877324549       23.9117721966       11.0665840133
C                21.4768630957       24.8578160198       10.5856457460
C                22.5971281169       24.1842901804        9.7875169157
O                22.9115015189       24.5633548874        8.6698639208
C                22.1027153722       25.6028804786       11.7552617383
C                23.2697401900       26.5076243081       11.2246088068
O                22.9401154059       27.5805205733       10.6890001943
O                24.4253531679       26.0806992602       11.3991490470
H                20.3654881895       23.8510712227       12.0711364566
H                21.0041018380       25.5686442906        9.8928192119
H                21.3496546274       26.2292105882       12.2337625550
H                22.5042121580       24.8889539619       12.4756585937
N                23.2027400825       23.1629310649       10.4232079314
C                24.4351906837       22.5953729115        9.9246046453
C                24.3664378468       21.0827100454        9.7038317524
O                25.1026588832       20.5176922535        8.9061505550
C                25.6231429941       22.9159811094       10.8558394421
C                26.9498278584       22.5960879722       10.1675102334
S                28.1527364421       21.7161097920       11.2151606870
C                27.2631499272       20.1829832031       11.5316366285
H                22.9574276142       23.0185793606       11.3946648770
H                24.6082658344       23.0662527889        8.9490712309
H                25.5551701178       23.9752153372       11.1162834316
H                25.4970907592       22.3398808595       11.7765133439
H                26.7759726008       21.9493255256        9.3079268299
H                27.4497499017       23.5049421119        9.8441968129
H                27.9473939405       19.4564045719       11.9549201987
H                26.4535042899       20.3558289481       12.2367566930
H                26.8550144197       19.8000441254       10.6007899984
N                23.5130656263       20.4264958166       10.5028359484
C                23.2795425379       19.0063849794       10.3689514445
C                22.6145009849       18.6528297316        9.0363413605
O                22.9706423377       17.6876138400        8.3724377612
H                22.8404019010       20.9635142385       11.0327993650
H                24.2296632282       18.4663133935       10.4411039697
H                22.6303114764       18.6837448966       11.1834928340
N                21.5857987925       19.4456863438        8.7122797404
C                20.9725827769       19.4798145904        7.3947883801
C                20.4026627715       18.1124876017        6.9812000179
O                20.4606222057       17.7008037410        5.8369560213
C                21.9579850986       19.9659695228        6.3275678159
C                22.4560026834       21.3982928360        6.5373836202
C                23.6136254021       21.6717956331        5.5794983901
C                21.3551185356       22.4334748286        6.3300997368
H                21.3535882840       20.1971897524        9.3508426799
H                20.1268090349       20.1723586955        7.4534402948
H                22.8106943160       19.2832477067        6.3319602984
H                21.4709709270       19.8821661011        5.3555526824
H                22.8330316144       21.4994359632        7.5624752203
H                23.9797159715       22.6863247510        5.7193095130
H                24.4336875963       20.9813210936        5.7645942126
H                23.2847683515       21.5581491713        4.5493176211
H                21.7681194496       23.4322800509        6.4554194125
H                20.9327975953       22.3491319655        5.3319172484
H                20.5606224653       22.3346118421        7.0641962687
N                19.7569703168       17.4521209912        7.9619191430
C                19.2252555366       16.1235539906        7.7645919029
C                17.7441369775       16.0828174904        8.1406394005
O                17.3313920008       16.5653921203        9.1858691790
C                19.9488670612       15.1005715915        8.6550133573
C                21.3982915977       14.8733547025        8.2181905368
C                22.2015246430       14.3715790254        9.4091787216
O                21.9550023775       13.3167270775        9.9760323936
N                23.1701178713       15.2098863743        9.7997139376
H                19.7863954360       17.8064500603        8.9060842972
H                19.3740459970       15.8863879991        6.7074982720
H                19.9357416554       15.4760810742        9.6808764872
H                19.4152859264       14.1502701705        8.6385524275
H                21.4377382025       14.1256317761        7.4262804346
H                21.8348115528       15.8010001263        7.8522588219
H                23.3236929116       16.0907030551        9.3188293350
H                23.7335423938       14.9980474850       10.6078905686
H                21.1425441968       12.2575587318       17.2064001495
H                22.5751804733        9.3169507818       16.2700394102
H                22.6276864986       10.5153590269       11.8089246964
H                22.8758906079       31.3048290114       22.1862048250
H                29.6718126638       11.3133260724       21.4255623267
H                27.0985668355        9.8665059210       23.0881000335
H                28.6529602369       13.3348496384       25.8556284526
H                25.2881176985       13.8592168175       25.2314643539
H                20.3901848246       24.6097709726       15.9116471348
H                19.4922777189       21.6307232607       12.1316769509
H                19.6793178220       24.1278785935       10.7352778005
H                17.0835826486       15.6531925677        7.5249362217
