384
Properties=species:S:1:pos:R:3 pbc="F F F"
N      23.29400000      17.58800000      60.14400000 
C      22.68600000      18.57100000      60.97400000 
C      23.27600000      18.36600000      62.24000000 
O      23.92600000      17.74900000      62.66500000 
C      20.99400000      18.31700000      61.15900000 
O      21.05100000      16.74100000      62.00700000 
C      20.27300000      17.96600000      59.95200000 
H      23.48300000      16.93600000      60.38800000 
H      22.55700000      19.48100000      60.60700000 
H      20.62400000      18.81800000      61.60000000 
H      20.31800000      16.62600000      62.11300000 
H      19.42900000      17.69800000      59.92900000 
H      20.46900000      18.67800000      59.17100000 
H      20.84800000      16.96800000      59.25400000 
N      22.80200000      19.85800000      63.19600000 
C      23.31000000      19.71900000      64.66600000 
C      22.25900000      20.34800000      65.08400000 
O      21.86100000      21.44000000      64.99300000 
C      24.61900000      20.51900000      64.70200000 
H      22.46300000      20.25600000      62.77200000 
H      23.41700000      18.63800000      64.90800000 
H      24.91200000      20.42600000      65.77500000 
H      25.45500000      19.88300000      64.19600000 
H      24.58500000      21.34700000      64.37000000 
N      21.56900000      19.82600000      66.36400000 
C      20.57600000      20.12200000      67.20300000 
C      20.87600000      20.04200000      68.51500000 
O      21.15400000      18.71100000      68.94800000 
C      19.26700000      19.81200000      66.74900000 
C      18.06100000      20.12400000      67.62500000 
N      17.83000000      21.54400000      67.55200000 
C      17.27800000      19.38000000      68.46900000 
C      16.62100000      21.57200000      68.53100000 
N      16.42600000      20.47100000      69.06500000 
H      21.92800000      18.79900000      66.48700000 
H      20.55800000      21.41300000      66.91100000 
H      19.00900000      19.89800000      65.66000000 
H      19.28100000      18.49000000      66.85900000 
H      17.28000000      18.50300000      68.72500000 
H      16.22800000      22.52200000      68.71300000 
H      15.76400000      20.22500000      69.63400000 
N      21.04400000      21.06100000      69.25700000 
C      21.41100000      20.90300000      70.87400000 
C      20.58700000      22.19300000      71.35700000 
O      20.19900000      22.95200000      70.98700000 
C      22.81900000      21.10400000      70.98100000 
O      23.01600000      22.14000000      70.74300000 
H      20.95400000      22.00500000      69.06500000 
H      21.03200000      19.90900000      71.07900000 
H      23.09400000      20.73100000      72.11100000 
H      23.39300000      20.17700000      70.36700000 
H      24.52900000      22.40400000      70.82200000 
N      20.66600000      21.21100000      73.12400000 
C      19.75500000      22.65800000      73.60500000 
C      20.49300000      22.39600000      75.33100000 
O      20.84600000      21.51600000      75.43200000 
C      17.99500000      22.42000000      73.56400000 
C      17.88300000      21.02800000      74.10300000 
S      15.98000000      20.47200000      73.68600000 
C      15.23800000      21.98800000      74.39200000 
H      20.74000000      21.02300000      73.21800000 
H      19.85800000      23.65100000      73.45200000 
H      17.77000000      23.02000000      74.31600000 
H      17.99800000      22.42100000      72.91600000 
H      18.44500000      20.11300000      73.69700000 
H      17.87900000      20.78600000      75.37100000 
H      13.88200000      21.39700000      74.36300000 
H      15.25800000      21.69500000      75.68300000 
H      15.17000000      22.56700000      74.13600000 
N      20.30800000      23.39100000      75.88600000 
C      20.80000000      23.82300000      77.24800000 
C      19.56700000      24.28200000      78.39200000 
O      19.26500000      25.26700000      77.77900000 
C      22.12500000      24.38000000      77.22600000 
C      22.64300000      24.85900000      78.52600000 
C      23.96700000      25.54900000      78.53400000 
O      24.48500000      26.06100000      79.62400000 
O      24.56500000      25.93200000      77.36600000 
H      19.80600000      24.47100000      75.50500000 
H      21.12700000      22.64400000      77.56400000 
H      22.75600000      24.17900000      76.49200000 
H      21.74200000      25.62100000      76.78600000 
H      22.13000000      25.18200000      79.27700000 
H      23.09000000      23.76200000      78.96800000 
N      19.55400000      23.72100000      79.09600000 
C      18.39000000      24.14400000      80.12300000 
C      19.52300000      24.08800000      81.74900000 
O      19.85400000      23.06200000      81.92100000 
C      17.31700000      23.56000000      80.62100000 
C      16.21000000      23.90300000      79.29700000 
C      14.85100000      23.03100000      79.36300000 
O      14.65900000      22.53900000      80.28000000 
N      14.46700000      23.62300000      78.42700000 
H      19.92300000      22.71400000      79.50400000 
H      18.41600000      25.23900000      80.04300000 
H      17.41300000      22.35200000      80.52700000 
H      16.79100000      23.74700000      81.18200000 
H      16.27700000      24.70600000      79.05900000 
H      16.77000000      23.25700000      78.24100000 
H      14.30400000      24.07300000      77.63600000 
H      12.81700000      23.04000000      78.49100000 
N      18.73100000      27.79700000      75.96100000 
C      19.18200000      27.92300000      74.72500000 
C      19.02600000      26.95400000      73.96700000 
O      19.06400000      25.65900000      74.24200000 
H      18.88300000      26.73600000      76.45600000 
H      18.76200000      28.92300000      74.31500000 
H      20.39100000      28.20300000      74.78300000 
N      18.86600000      26.85800000      72.50200000 
C      18.58600000      25.99500000      71.46800000 
C      19.50900000      26.76100000      70.25100000 
O      19.23300000      27.67400000      69.94100000 
C      17.52000000      25.47300000      71.19600000 
C      16.38300000      26.47400000      70.80600000 
C      14.76100000      25.99500000      70.83200000 
O      14.16900000      26.09900000      70.09900000 
O      14.64500000      25.21800000      72.03200000 
H      18.71100000      28.15100000      72.20300000 
H      19.45200000      25.21700000      71.93600000 
H      17.46700000      24.65600000      70.62400000 
H      17.01600000      25.01300000      72.32500000 
H      16.35100000      27.28400000      71.37700000 
H      16.46900000      26.70300000      69.89200000 
N      20.17400000      25.63700000      69.59700000 
C      20.84700000      26.23400000      68.39800000 
C      20.78000000      24.89800000      67.54400000 
O      20.96000000      23.79600000      67.60400000 
C      22.64000000      26.24700000      68.51300000 
C      22.65700000      27.14500000      69.94800000 
C      24.04600000      27.44800000      70.00200000 
C      24.77300000      28.59500000      69.33600000 
N      26.15700000      28.94300000      69.28200000 
H      20.33000000      24.79100000      69.97100000 
H      20.61100000      26.95300000      68.08500000 
H      22.82400000      25.25300000      68.94000000 
H      22.88500000      26.48700000      67.85000000 
H      22.25000000      28.04600000      69.70000000 
H      22.38100000      26.76000000      70.76600000 
H      24.40300000      27.78800000      71.11200000 
H      24.86600000      26.57400000      69.94800000 
H      24.65200000      28.25300000      67.98800000 
H      24.23700000      29.45000000      69.28700000 
H      26.53800000      29.58300000      68.81900000 
H      26.33700000      29.21000000      70.45000000 
H      26.80500000      27.98700000      69.27500000 
N      20.04400000      25.21200000      66.22600000 
C      19.59700000      24.31500000      65.08500000 
C      20.24400000      24.65500000      64.10600000 
O      20.04400000      25.97000000      63.37100000 
C      17.99000000      24.46700000      65.12400000 
C      17.71000000      23.46800000      64.01900000 
C      16.07000000      23.65900000      63.65400000 
O      15.64300000      23.58900000      62.46100000 
N      15.42400000      23.79700000      65.09400000 
H      19.70700000      26.42400000      66.12900000 
H      19.91200000      23.53600000      65.52800000 
H      17.68600000      24.23300000      66.09300000 
H      17.80000000      25.47100000      64.86900000 
H      18.01400000      23.56900000      63.14800000 
H      17.68400000      22.46800000      64.35600000 
H      15.42800000      23.81400000      65.49200000 
H      14.09000000      23.91800000      64.51700000 
N      21.04800000      23.84800000      63.31400000 
C      21.68300000      24.04600000      62.27000000 
C      21.49800000      22.71300000      61.20500000 
O      21.56000000      21.90600000      61.63500000 
C      23.36600000      24.21100000      62.21700000 
C      23.52100000      25.38500000      63.18800000 
C      23.95400000      24.52200000      61.01600000 
C      24.92900000      25.57200000      63.89200000 
H      21.22300000      23.20600000      63.71700000 
H      21.37300000      25.03400000      61.61700000 
H      23.58000000      23.37200000      62.77900000 
H      23.53000000      26.31900000      62.72400000 
H      22.93800000      25.47400000      64.03400000 
H      25.04300000      24.54200000      61.09300000 
H      23.94600000      23.45900000      60.31900000 
H      23.68300000      25.14200000      60.39700000 
H      25.18000000      26.13900000      64.50000000 
H      25.15500000      24.29200000      64.47900000 
H      25.86100000      25.34800000      63.01800000 
N      21.04800000      23.36800000      59.71500000 
C      21.02200000      22.17300000      58.88200000 
C      21.51500000      22.93700000      57.40800000 
O      21.38700000      23.40400000      57.32000000 
C      19.52000000      21.33800000      58.88500000 
C      18.54000000      22.49700000      58.48700000 
C      17.11100000      22.03200000      58.33200000 
O      16.88100000      21.23500000      57.08100000 
N      16.44600000      21.90000000      58.72400000 
H      20.98000000      23.98100000      59.61000000 
H      21.62100000      21.17500000      59.32100000 
H      19.59800000      20.80100000      58.06200000 
H      19.32700000      21.15900000      59.58200000 
H      18.41700000      23.35300000      59.14400000 
H      18.80500000      23.10200000      57.35100000 
H      16.49500000      22.70300000      60.25200000 
H      15.23500000      21.56300000      59.04200000 
N      22.23700000      21.80000000      56.94600000 
C      22.88000000      21.82800000      55.54500000 
C      22.48700000      20.50500000      54.84300000 
O      22.62800000      19.73400000      55.00300000 
C      24.41100000      22.01700000      55.78600000 
C      24.79000000      22.95300000      56.52400000 
C      25.02700000      22.10200000      54.36000000 
C      26.55400000      23.17700000      56.92700000 
H      22.56900000      20.59900000      57.42900000 
H      22.51300000      22.79700000      55.25600000 
H      24.78300000      20.96200000      56.11600000 
H      24.70900000      24.05900000      56.18400000 
H      24.34100000      22.99800000      57.54000000 
H      26.13200000      22.16300000      54.32200000 
H      24.80200000      21.22100000      53.60100000 
H      24.68100000      23.02100000      53.78600000 
H      26.63000000      23.73200000      57.72000000 
H      26.63700000      21.90400000      57.47800000 
H      26.97900000      23.10900000      56.16700000 
N      20.89500000      24.38400000      50.33200000 
C      19.85000000      24.88000000      51.86000000 
C      20.66500000      25.24300000      52.70300000 
O      21.26500000      23.72700000      53.49700000 
C      18.66400000      24.43300000      51.66700000 
C      17.76700000      24.76500000      53.00800000 
C      16.94500000      26.13100000      52.45400000 
C      16.40600000      23.99300000      53.47100000 
H      21.18500000      23.63700000      50.88600000 
H      19.74300000      26.06000000      51.34400000 
H      18.12600000      24.23000000      50.94500000 
H      18.82500000      23.23000000      52.19400000 
H      18.10900000      25.07700000      53.75000000 
H      16.39300000      26.64800000      53.11600000 
H      18.00900000      27.13000000      52.26500000 
H      16.59700000      26.18700000      51.51700000 
H      15.90100000      24.32100000      53.80500000 
H      15.86400000      23.74300000      52.21500000 
H      16.85300000      23.03300000      53.52700000 
N      20.79800000      26.24800000      53.56000000 
C      21.49200000      26.14900000      55.15000000 
C      20.70400000      27.28200000      55.58800000 
O      20.20900000      28.39100000      55.28300000 
C      22.97500000      26.70700000      54.81100000 
C      23.50900000      27.05900000      56.33000000 
C      23.92600000      28.47200000      56.61200000 
C      25.55300000      28.64100000      56.12500000 
N      26.10200000      28.68100000      54.74300000 
H      20.54900000      27.03600000      53.12600000 
H      21.52000000      25.45400000      55.27600000 
H      23.39400000      26.31100000      54.19500000 
H      22.81300000      27.97100000      54.27400000 
H      22.97100000      26.75800000      56.91300000 
H      24.46600000      26.33200000      56.19800000 
H      23.45600000      29.20000000      56.08600000 
H      24.01400000      28.61500000      57.51000000 
H      25.81900000      29.90600000      56.44100000 
H      26.25400000      28.09700000      56.76900000 
H      26.64400000      28.88400000      54.54000000 
H      25.80400000      27.51800000      54.43800000 
H      25.13500000      29.14000000      54.08000000 
N      19.98800000      26.81100000      57.02000000 
C      19.41100000      27.40400000      57.80900000 
C      19.78400000      27.52300000      59.13500000 
O      20.36100000      26.37700000      59.57600000 
C      18.02700000      27.47600000      57.71700000 
C      16.96300000      26.24300000      58.31500000 
C      16.81700000      26.46700000      59.76500000 
C      16.25800000      25.62800000      57.42700000 
H      20.40000000      25.81900000      57.20300000 
H      19.65700000      28.77200000      57.50100000 
H      17.37500000      28.40500000      58.15700000 
H      17.65800000      27.53200000      56.61500000 
H      18.00100000      25.42700000      58.30200000 
H      16.33400000      25.51500000      60.15100000 
H      17.44800000      26.80600000      60.37000000 
H      15.94100000      27.24900000      59.71600000 
H      15.54600000      24.89600000      57.83900000 
H      15.18100000      26.67700000      57.29200000 
H      16.34200000      25.51700000      56.47100000 
N      19.85000000      28.22200000      60.01800000 
C      20.28000000      28.36800000      61.41300000 
C      19.19900000      28.99400000      62.56600000 
O      18.76700000      30.59200000      61.68500000 
C      21.65100000      28.42800000      61.95300000 
C      22.19600000      30.21400000      61.56500000 
C      23.45100000      30.11200000      61.41900000 
O      24.10600000      31.63700000      61.94700000 
O      24.40100000      29.26000000      61.15400000 
H      19.50800000      29.39300000      59.62000000 
H      20.00900000      27.42200000      61.72100000 
H      21.77800000      28.59900000      62.63600000 
H      22.17700000      28.08300000      61.21000000 
H      21.80000000      30.34700000      60.20600000 
H      21.64900000      30.79000000      61.88700000 
N      18.97900000      28.57900000      63.06400000 
C      17.93000000      29.35000000      64.52900000 
C      18.41600000      29.31400000      65.54500000 
O      18.87100000      28.24200000      66.09600000 
C      16.60200000      29.05900000      64.19400000 
O      15.97400000      28.89600000      63.06500000 
C      15.55600000      29.36400000      65.39100000 
H      19.05600000      27.83200000      63.60500000 
H      17.78200000      30.48900000      64.00000000 
H      16.57000000      27.54800000      64.53600000 
H      15.20100000      28.48600000      62.79100000 
H      14.49500000      28.99800000      65.20600000 
H      15.87200000      29.25700000      66.30000000 
H      15.51400000      30.51400000      65.12300000 
N      18.74800000      29.92100000      66.49100000 
C      19.25300000      30.51600000      67.74300000 
C      18.03600000      31.16000000      68.58900000 
O      17.40200000      31.98700000      68.11700000 
C      20.51300000      30.90400000      68.09800000 
O      20.52200000      32.63400000      67.69300000 
C      21.53500000      30.24400000      67.11000000 
H      18.31800000      31.45900000      65.86300000 
H      19.15200000      29.29400000      68.09400000 
H      20.77200000      30.86100000      68.92300000 
H      21.01000000      32.77000000      67.82300000 
H      22.59400000      30.87000000      67.26700000 
H      21.66500000      29.33000000      67.21200000 
H      21.31500000      30.52200000      65.96500000 
N      18.04800000      30.61400000      70.10200000 
C      17.32800000      31.23000000      70.79200000 
C      17.69600000      31.22500000      72.13600000 
O      18.34200000      30.25800000      72.57800000 
C      15.60200000      31.00800000      70.94400000 
O      14.90500000      31.49400000      71.55500000 
H      18.45700000      30.04100000      70.15200000 
H      16.99500000      32.53700000      70.56100000 
H      15.39400000      30.67500000      69.82800000 
H      15.86000000      29.58300000      71.31900000 
H      14.60400000      32.13300000      71.30600000 
N      17.33600000      34.27100000      63.29400000 
C      16.88300000      33.22400000      62.13000000 
C      17.52400000      33.66200000      60.76000000 
O      17.41900000      35.09900000      60.34800000 
C      15.51100000      33.50300000      61.90000000 
O      14.72500000      32.97600000      63.17200000 
C      14.86000000      32.27700000      60.75000000 
H      17.25600000      35.17400000      62.94400000 
H      17.19400000      32.40200000      62.35000000 
H      15.08400000      34.36200000      61.66400000 
H      13.94000000      33.12600000      63.22300000 
H      13.80700000      32.44200000      60.78600000 
H      15.19600000      32.70600000      59.88600000 
H      15.15400000      31.42600000      61.00400000 
N      18.45700000      32.82900000      59.97100000 
C      19.03400000      33.27500000      59.06100000 
C      18.61900000      31.92500000      57.84800000 
O      18.81600000      30.68800000      58.37600000 
C      20.53700000      33.11900000      58.98900000 
C      21.42600000      33.28400000      57.90800000 
C      22.71500000      33.30900000      57.74500000 
O      23.42100000      32.84200000      56.94700000 
O      23.30000000      33.92500000      58.86800000 
H      18.50000000      31.91400000      60.63300000 
H      18.57800000      33.98300000      58.46100000 
H      20.70700000      34.14700000      59.61600000 
H      20.85100000      32.43100000      59.60300000 
H      21.03700000      32.39900000      57.05500000 
H      20.91500000      34.22600000      57.07500000 
N      18.32100000      32.15200000      56.91300000 
C      18.08700000      31.06100000      55.81300000 
C      18.70600000      31.68600000      54.32300000 
O      18.50400000      33.04900000      54.08300000 
C      16.60400000      30.77900000      55.55600000 
C      15.94500000      32.22600000      55.35500000 
C      16.44800000      29.73100000      54.61200000 
H      18.16700000      33.17600000      56.43200000 
H      18.60700000      30.38800000      55.98200000 
H      16.33200000      30.38300000      56.39400000 
H      14.47200000      31.56300000      55.17700000 
H      15.70500000      32.59600000      55.80500000 
H      15.88100000      32.41300000      54.19300000 
H      15.39900000      29.28500000      54.43900000 
H      16.67800000      30.10900000      53.32400000 
H      17.15400000      28.83700000      54.57900000 
H      22.74270759      17.38874994      59.46108266 
H      19.70311893      24.92724647      82.26205217 
H      19.15088672      28.38682586      76.49560322 
H      21.94130044      20.52640902      54.00529263 
H      20.35074748      24.23918588      49.62998998 
H      17.44062909      31.99004630      72.72717668 
H      16.80238963      34.17143696      64.01187685 
H      19.18007862      31.07935610      53.68485218 
