405
Properties=species:S:1:pos:R:3 pbc="F F F"
N      16.40300000      12.29700000      22.18800000 
C      17.58500000      13.05700000      21.80600000 
C      18.72400000      12.09600000      21.48000000 
O      19.47100000      12.32900000      20.51400000 
C      18.04100000      14.10500000      22.86200000 
C      16.88700000      14.92100000      23.48400000 
C      19.09100000      15.03800000      22.23600000 
C      16.04900000      15.76800000      22.52300000 
H      16.00800000      12.41200000      23.09400000 
H      17.38000000      13.56800000      20.87800000 
H      18.50600000      13.56500000      23.68000000 
H      16.22700000      14.26300000      24.03100000 
H      17.33900000      15.57300000      24.22500000 
H      19.37400000      15.80500000      22.94700000 
H      19.98800000      14.50800000      21.94500000 
H      18.69900000      15.52900000      21.35500000 
H      15.27900000      16.29500000      23.07700000 
H      16.64600000      16.51000000      22.00500000 
H      15.55300000      15.15600000      21.78100000 
N      18.83100000      11.03000000      17.88700000 
C      19.23000000      12.08300000      16.97100000 
C      20.72100000      12.09600000      16.68700000 
O      21.15200000      12.85900000      15.80500000 
C      18.80100000      13.43800000      17.53500000 
H      18.58000000      11.30400000      18.81100000 
H      18.75200000      11.91500000      16.01700000 
H      19.06500000      14.23200000      16.85400000 
H      17.73200000      13.43900000      17.67300000 
H      19.27400000      13.62100000      18.48800000 
N      29.71700000      18.70200000      14.29600000 
C      28.75800000      19.16400000      15.29100000 
C      29.46600000      19.79000000      16.48500000 
O      29.00200000      20.80500000      17.03200000 
C      27.85700000      17.97900000      15.72000000 
C      26.61700000      18.39900000      16.47900000 
C      25.46100000      18.74800000      15.78100000 
C      26.59300000      18.43600000      17.87100000 
C      24.31400000      19.13500000      16.45800000 
C      25.44600000      18.82900000      18.55100000 
C      24.30200000      19.17900000      17.84600000 
H      29.69900000      17.74200000      14.01800000 
H      28.14500000      19.94800000      14.86800000 
H      27.55700000      17.46300000      14.81700000 
H      28.44400000      17.28300000      16.30400000 
H      25.45800000      18.70300000      14.70700000 
H      27.46700000      18.15500000      18.42700000 
H      23.43600000      19.40600000      15.90600000 
H      25.44300000      18.85900000      19.62300000 
H      23.41500000      19.48100000      18.37000000 
N      30.50900000      23.44900000      15.75900000 
C      29.47100000      24.44100000      15.56800000 
C      28.74500000      24.78100000      16.85500000 
O      28.24300000      25.92400000      16.97500000 
C      28.48800000      23.99900000      14.46300000 
C      27.67400000      25.14700000      13.85000000 
C      28.54600000      26.12800000      13.05400000 
C      27.78300000      27.37900000      12.61000000 
N      28.69400000      28.57600000      12.67600000 
H      30.38900000      22.53200000      15.38200000 
H      29.95100000      25.36200000      15.28100000 
H      29.07600000      23.53000000      13.68500000 
H      27.82200000      23.23900000      14.85400000 
H      26.92300000      24.71900000      13.19600000 
H      27.14200000      25.68300000      14.62700000 
H      29.38300000      26.44200000      13.66500000 
H      28.96900000      25.62800000      12.18900000 
H      27.41000000      27.30200000      11.60100000 
H      26.96000000      27.60100000      13.27000000 
H      28.24700000      29.40400000      12.31500000 
H      28.92700000      28.73400000      13.65400000 
H      29.54100000      28.43300000      12.14900000 
N      28.66000000      23.87300000      17.82300000 
C      27.93600000      24.08600000      19.08000000 
C      28.35200000      25.39400000      19.74100000 
O      27.49700000      26.14700000      20.23600000 
C      28.19200000      22.84300000      19.96700000 
C      27.39400000      22.67100000      21.27900000 
C      27.83000000      23.60100000      22.42200000 
C      25.87500000      22.72500000      21.06500000 
H      29.02800000      22.95800000      17.65200000 
H      26.88200000      24.19000000      18.87200000 
H      27.96600000      21.98600000      19.34200000 
H      29.25400000      22.79500000      20.18900000 
H      27.63400000      21.65800000      21.59700000 
H      27.38200000      23.27200000      23.35400000 
H      28.90700000      23.58900000      22.54900000 
H      27.51800000      24.62300000      22.25400000 
H      25.35900000      22.42900000      21.97200000 
H      25.54300000      23.72500000      20.81100000 
H      25.56600000      22.05300000      20.27200000 
N      26.58300000      28.80600000      18.24000000 
C      25.15300000      29.06200000      18.14800000 
C      24.75600000      30.13300000      19.16000000 
O      25.25900000      30.12700000      20.29800000 
C      24.35300000      27.74000000      18.34000000 
C      24.31500000      27.22800000      19.78500000 
C      22.92800000      27.86600000      17.78200000 
H      26.90200000      27.97000000      18.67700000 
H      24.95700000      29.41300000      17.14900000 
H      24.88300000      27.01200000      17.73300000 
H      23.90300000      26.22500000      19.79800000 
H      25.29500000      27.18800000      20.23500000 
H      23.68300000      27.85300000      20.40000000 
H      22.41900000      26.91500000      17.86600000 
H      22.35000000      28.59400000      18.33800000 
H      22.93300000      28.15300000      16.73800000 
N      16.35300000      22.43000000      25.80200000 
C      17.28600000      21.57800000      25.09700000 
C      16.69600000      20.95200000      23.85300000 
O      17.42100000      20.76100000      22.85500000 
H      16.23700000      22.24200000      26.77600000 
H      18.16700000      22.12000000      24.79000000 
H      17.58900000      20.79200000      25.77400000 
N      15.40700000      20.62000000      23.85300000 
C      14.74300000      20.10100000      22.66500000 
C      14.70000000      21.13600000      21.54200000 
O      14.84800000      20.77500000      20.36100000 
C      13.32600000      19.65300000      23.03000000 
H      14.89300000      20.66500000      24.71000000 
H      15.30200000      19.26700000      22.27000000 
H      12.80200000      19.34700000      22.13900000 
H      13.36900000      18.81300000      23.71100000 
H      12.77500000      20.45700000      23.49800000 
N      14.46900000      22.40900000      21.87900000 
C      14.46900000      23.49800000      20.91200000 
C      15.88700000      23.78800000      20.42200000 
O      16.10900000      23.98800000      19.21400000 
C      13.86500000      24.77500000      21.52500000 
C      12.38000000      24.64400000      21.88700000 
C      11.84700000      25.90500000      22.55300000 
O      12.48900000      26.34100000      23.56900000 
O      10.81100000      26.44100000      22.08500000 
H      14.40700000      22.64800000      22.84100000 
H      13.90500000      23.20000000      20.04200000 
H      14.42800000      25.04800000      22.40400000 
H      13.98800000      25.57400000      20.80100000 
H      11.78900000      24.43800000      21.00500000 
H      12.23900000      23.82400000      22.58300000 
N      16.85800000      23.83200000      21.33700000 
C      18.23800000      24.12900000      20.99200000 
C      18.80300000      23.08100000      20.05000000 
O      19.54700000      23.41100000      19.11000000 
C      19.07700000      24.19200000      22.28400000 
C      20.53900000      24.63400000      22.09600000 
C      20.64300000      26.11900000      21.72900000 
C      21.32900000      24.33800000      23.37800000 
H      16.62800000      23.71100000      22.30400000 
H      18.28400000      25.06700000      20.45900000 
H      18.58600000      24.87700000      22.96500000 
H      19.05400000      23.21200000      22.74700000 
H      20.98500000      24.05300000      21.29500000 
H      21.67900000      26.40500000      21.59500000 
H      20.11800000      26.35100000      20.80900000 
H      20.22700000      26.73600000      22.51800000 
H      22.36100000      24.65200000      23.27400000 
H      20.90200000      24.86500000      24.22600000 
H      21.32200000      23.27700000      23.60500000 
N      18.48900000      21.80400000      20.28800000 
C      18.98800000      20.73000000      19.44700000 
C      18.53800000      20.94300000      18.00900000 
O      19.33400000      20.79100000      17.06700000 
C      18.52000000      19.37000000      20.00700000 
O      19.10200000      19.18400000      21.30400000 
C      18.95700000      18.20600000      19.14200000 
H      17.94400000      21.57400000      21.09400000 
H      20.06800000      20.73700000      19.42900000 
H      17.44000000      19.38200000      20.09600000 
H      18.59900000      19.61000000      22.00100000 
H      18.66600000      17.28200000      19.61900000 
H      18.48800000      18.24100000      18.17000000 
H      20.03200000      18.20500000      19.01300000 
N      17.26500000      21.29200000      17.80400000 
C      16.74300000      21.51100000      16.46600000 
C      17.45500000      22.65800000      15.76800000 
O      17.70500000      22.57000000      14.55100000 
C      15.23400000      21.76400000      16.52000000 
H      16.65100000      21.41600000      18.57900000 
H      16.94100000      20.64100000      15.85900000 
H      14.85100000      21.90900000      15.52000000 
H      14.73700000      20.90700000      16.95400000 
H      15.00800000      22.63800000      17.11500000 
N      17.77900000      23.74400000      16.47400000 
C      18.46300000      24.86800000      15.85600000 
C      19.79600000      24.44300000      15.24700000 
O      20.12100000      24.86800000      14.12700000 
C      18.73300000      25.99500000      16.85900000 
C      17.54300000      26.88400000      17.13000000 
O      16.37800000      26.54800000      16.85500000 
N      17.82800000      28.06200000      17.69100000 
H      17.50800000      23.80700000      17.43300000 
H      17.87900000      25.24300000      15.03200000 
H      19.07700000      25.58100000      17.80000000 
H      19.53400000      26.61800000      16.48100000 
H      17.09500000      28.69300000      17.92300000 
H      18.76200000      28.34800000      17.87800000 
N      20.60800000      23.66200000      15.97000000 
C      21.92000000      23.29900000      15.44800000 
C      21.76500000      22.30100000      14.30300000 
O      22.46100000      22.40300000      13.27100000 
C      22.88000000      22.76000000      16.54200000 
C      24.31200000      22.69700000      15.98800000 
C      22.86400000      23.63600000      17.80100000 
H      20.30900000      23.32600000      16.86000000 
H      22.36200000      24.18100000      15.01100000 
H      22.55800000      21.76100000      16.81500000 
H      24.97800000      22.29200000      16.73900000 
H      24.39400000      22.07800000      15.10500000 
H      24.65800000      23.69400000      15.73600000 
H      23.60900000      23.27100000      18.49800000 
H      23.11200000      24.66300000      17.55500000 
H      21.91100000      23.62500000      18.30600000 
N      20.86700000      21.32100000      14.44200000 
C      20.69800000      20.31200000      13.41100000 
C      20.20400000      20.90200000      12.09900000 
O      20.66200000      20.44400000      11.03500000 
C      19.72900000      19.20400000      13.85400000 
C      20.23000000      18.28900000      14.98600000 
C      19.06100000      17.41100000      15.44900000 
C      21.41500000      17.41400000      14.55800000 
H      20.31300000      21.25900000      15.27200000 
H      21.66100000      19.88700000      13.17400000 
H      18.79600000      19.66800000      14.15400000 
H      19.51500000      18.58900000      12.98700000 
H      20.54000000      18.90400000      15.82200000 
H      19.36500000      16.74900000      16.25200000 
H      18.23400000      18.01400000      15.80500000 
H      18.69900000      16.79900000      14.63200000 
H      21.74100000      16.79300000      15.38600000 
H      21.13500000      16.75800000      13.73900000 
H      22.26700000      18.00200000      14.24000000 
N      19.26700000      21.85800000      12.10300000 
C      18.76000000      22.37000000      10.83900000 
C      19.67800000      23.40500000      10.20500000 
O      19.52000000      23.67500000       9.00200000 
C      17.31600000      22.89600000      10.91200000 
C      17.12100000      24.21600000      11.66300000 
C      15.71200000      24.77100000      11.43400000 
N      15.45100000      25.95300000      12.26400000 
C      15.08900000      25.94100000      13.54200000 
N      14.79700000      24.80200000      14.16200000 
N      15.00900000      27.08300000      14.21900000 
H      18.85600000      22.15700000      12.96700000 
H      18.76000000      21.54900000      10.13800000 
H      16.98300000      23.01100000       9.88700000 
H      16.70400000      22.12000000      11.35800000 
H      17.28900000      24.06700000      12.72000000 
H      17.83400000      24.96100000      11.32500000 
H      15.59400000      25.08600000      10.40900000 
H      14.95500000      24.02000000      11.61900000 
H      15.66400000      26.83600000      11.85700000 
H      14.84600000      23.92200000      13.70800000 
H      14.51200000      24.79900000      15.11300000 
H      15.23300000      27.95000000      13.78700000 
H      14.93500000      27.07500000      15.21300000 
N      20.61800000      24.00100000      10.95000000 
C      21.54500000      24.96200000      10.37500000 
C      22.72800000      24.27600000       9.70000000 
O      23.21900000      24.76500000       8.67000000 
C      22.04600000      25.94800000      11.44000000 
C      22.65100000      27.22000000      10.85200000 
O      22.03400000      27.76900000       9.89200000 
O      23.70100000      27.66200000      11.39800000 
H      20.65500000      23.82500000      11.93000000 
H      21.04000000      25.51500000       9.60300000 
H      21.19500000      26.24300000      12.04300000 
H      22.76300000      25.47900000      12.10000000 
N      23.23800000      23.18600000      10.30000000 
C      24.45600000      22.55300000       9.83000000 
C      24.29200000      21.07100000       9.52600000 
O      24.93700000      20.56000000       8.59200000 
C      25.60600000      22.76500000      10.83700000 
C      26.97400000      22.41100000      10.24800000 
S      28.12000000      21.60200000      11.48600000 
C      27.30100000      19.92400000      11.61600000 
H      22.85000000      22.91000000      11.17900000 
H      24.71400000      23.01600000       8.89300000 
H      25.59300000      23.80700000      11.12600000 
H      25.39600000      22.19100000      11.73100000 
H      26.89600000      21.73200000       9.41600000 
H      27.49300000      23.29500000       9.91200000 
H      27.86100000      19.34300000      12.32700000 
H      26.28800000      20.03300000      11.96600000 
H      27.31600000      19.44000000      10.65400000 
N      23.49100000      20.32700000      10.29400000 
C      23.30800000      18.91200000      10.04600000 
C      22.62200000      18.63200000       8.72100000 
O      23.01100000      17.69000000       8.00900000 
H      22.95100000      20.73700000      11.01900000 
H      24.25100000      18.39400000      10.03400000 
H      22.70400000      18.50700000      10.84400000 
N      21.57700000      19.40600000       8.40400000 
C      20.91400000      19.43400000       7.10100000 
C      20.33100000      18.07400000       6.71900000 
O      20.36400000      17.67000000       5.54600000 
C      21.80700000      19.99500000       5.98500000 
C      22.31200000      21.42800000       6.21600000 
C      23.34900000      21.78300000       5.14200000 
C      21.17800000      22.46100000       6.22700000 
H      21.26900000      20.06000000       9.09200000 
H      20.05800000      20.08500000       7.23500000 
H      22.65200000      19.33100000       5.85900000 
H      21.24300000      19.96600000       5.06200000 
H      22.81000000      21.46600000       7.17700000 
H      23.75900000      22.77300000       5.31600000 
H      24.17100000      21.07600000       5.13900000 
H      22.89700000      21.77800000       4.15400000 
H      21.58000000      23.45800000       6.36500000 
H      20.63400000      22.44500000       5.28700000 
H      20.47600000      22.29000000       7.03000000 
N      19.73000000      17.37900000       7.69600000 
C      19.16700000      16.06100000       7.49500000 
C      17.68200000      16.05700000       7.81000000 
O      17.20300000      16.74900000       8.72500000 
C      19.87000000      15.03200000       8.40100000 
C      21.31100000      14.76000000       7.94300000 
C      22.09800000      14.13200000       9.06300000 
O      21.85900000      12.97300000       9.45200000 
N      23.02600000      14.90300000       9.63600000 
H      19.72400000      17.74800000       8.62000000 
H      19.31100000      15.79700000       6.46000000 
H      19.85900000      15.41800000       9.41400000 
H      19.31900000      14.10300000       8.39900000 
H      21.30100000      14.07400000       7.10600000 
H      21.78500000      15.67600000       7.63100000 
H      23.21700000      15.82000000       9.29700000 
H      23.55000000      14.56800000      10.41100000 
N      16.10300000      13.84300000       9.34700000 
C      15.91900000      13.36000000      10.70100000 
C      15.75900000      14.48400000      11.71400000 
O      15.26300000      14.20100000      12.82400000 
C      17.04100000      12.39600000      11.12500000 
C      18.44600000      13.01200000      11.09600000 
S      19.44600000      12.79800000      12.66800000 
C      18.56200000      13.98100000      13.80700000 
H      16.92100000      13.57200000       8.85200000 
H      14.98900000      12.81400000      10.74900000 
H      16.78800000      12.03700000      12.11200000 
H      17.00200000      11.53800000      10.46500000 
H      19.05600000      12.56000000      10.33200000 
H      18.42000000      14.07400000      10.90900000 
H      19.21300000      14.12400000      14.64800000 
H      18.40900000      14.91600000      13.29500000 
H      17.62100000      13.56600000      14.12400000 
N      16.10000000      15.73700000      11.41500000 
C      15.80400000      16.81900000      12.34600000 
C      14.30100000      16.91500000      12.58700000 
O      13.86300000      17.21500000      13.71200000 
C      16.36800000      18.14100000      11.81900000 
H      16.52900000      15.96400000      10.54000000 
H      16.24000000      16.59600000      13.30700000 
H      16.19500000      18.92900000      12.53900000 
H      17.43500000      18.04400000      11.67000000 
H      15.91300000      18.41800000      10.87800000 
N      13.04800000      13.98900000      14.84400000 
C      13.21000000      14.26200000      16.26100000 
C      12.10500000      15.18400000      16.74500000 
O      11.50000000      14.95000000      17.81000000 
C      14.58600000      14.88000000      16.55700000 
C      14.78200000      15.20800000      18.04900000 
C      14.75800000      13.93900000      18.90500000 
C      16.06700000      16.01200000      18.26800000 
H      13.77100000      14.24800000      14.20200000 
H      13.08600000      13.34300000      16.81000000 
H      15.34700000      14.17600000      16.23700000 
H      14.70500000      15.78000000      15.96400000 
H      13.96600000      15.84400000      18.36800000 
H      14.97900000      14.16700000      19.93800000 
H      13.79000000      13.45600000      18.88500000 
H      15.49400000      13.22300000      18.56200000 
H      16.19500000      16.23400000      19.32100000 
H      16.94000000      15.46700000      17.93600000 
H      16.03300000      16.95300000      17.73100000 
N      11.81600000      16.26000000      16.00800000 
C      10.81500000      17.21600000      16.44700000 
C       9.47900000      16.55000000      16.72400000 
O       8.78800000      16.98200000      17.67200000 
C      10.63300000      18.35700000      15.43500000 
C      11.79800000      19.35300000      15.48400000 
C      11.61100000      20.46600000      14.48600000 
O      11.33600000      20.22600000      13.29500000 
N      11.76000000      21.71800000      14.93100000 
H      12.32000000      16.43700000      15.16500000 
H      11.12000000      17.63500000      17.39400000 
H      10.51900000      17.94500000      14.44300000 
H       9.71500000      18.87800000      15.68200000 
H      11.89300000      19.75400000      16.48400000 
H      12.72900000      18.85700000      15.23700000 
H      11.96400000      21.92300000      15.88100000 
H      11.66600000      22.48200000      14.30200000 
H      15.72543294      12.49442330      21.62949582 
H      18.86775967      11.28184692      22.04257259 
H      18.11027329      10.60289739      17.55815906 
H      21.33383978      11.49907552      17.20479202 
H      29.60111164      19.16162284      13.53094005 
H      30.31062619      19.38443858      16.83446607 
H      31.27566876      23.74136092      15.38921072 
H      29.31785279      25.65042204      19.77809614 
H      26.93620332      28.77345590      17.41284324 
H      24.09281935      30.83775082      18.90797281 
H      16.62504718      23.28594736      25.74416873 
H      17.05890028      15.48656338       7.27488431 
H      15.42060589      13.56132939       8.83221854 
H      13.66220282      16.73638507      11.83864523 
H      12.95020478      13.10325224      14.71795633 
H       9.17311342      15.78694780      16.15462777 
