396
Properties=species:S:1:pos:R:3 pbc="F F F"
N      54.90000000      47.72500000      48.90400000 
C      55.23800000      48.94600000      48.96100000 
C      55.70200000      49.66400000      47.95700000 
O      56.52900000      48.89000000      46.81900000 
C      56.21400000      49.31500000      50.14700000 
C      55.47100000      48.88000000      51.58000000 
C      54.85900000      49.65000000      52.07100000 
C      55.41800000      47.57800000      52.37400000 
C      54.19100000      49.82300000      53.42000000 
C      54.98500000      47.63600000      53.14700000 
C      54.28000000      47.83000000      53.92600000 
H      55.49700000      46.86800000      49.12400000 
H      54.18700000      49.51300000      49.30700000 
H      57.03100000      48.39300000      49.99400000 
H      56.48000000      50.04500000      50.18300000 
H      54.75400000      50.84300000      51.76400000 
H      56.21400000      46.69600000      51.54300000 
H      53.62600000      50.25100000      53.86500000 
H      55.04100000      46.17900000      53.79300000 
H      53.74800000      48.08700000      54.90000000 
N      54.62900000      45.54900000      72.02200000 
C      54.40000000      46.20400000      70.83600000 
C      55.63600000      47.50100000      70.63100000 
O      55.64200000      47.72900000      70.82700000 
C      53.06500000      47.05400000      70.91800000 
C      51.74000000      46.27200000      71.47800000 
C      52.79200000      47.36400000      69.65500000 
C      50.79000000      46.74000000      72.22100000 
H      55.08300000      46.23100000      72.85900000 
H      54.21600000      45.31700000      70.17200000 
H      53.16200000      47.76300000      71.68800000 
H      51.32700000      45.67500000      70.59700000 
H      52.20900000      45.17500000      72.03800000 
H      51.64300000      48.26800000      69.69400000 
H      53.45300000      48.38000000      69.25400000 
H      52.54400000      46.92400000      68.87400000 
H      50.06300000      46.35100000      72.54900000 
H      51.35900000      47.18400000      73.30500000 
H      50.52100000      47.86900000      71.81200000 
N      56.17100000      46.67300000      69.51100000 
C      57.42300000      47.18100000      69.05400000 
C      57.60300000      47.50800000      67.44700000 
O      57.10400000      46.06500000      66.81800000 
C      58.89100000      46.76400000      69.60800000 
O      58.69300000      46.43400000      70.95700000 
C      59.98500000      46.77200000      69.40600000 
H      56.01500000      45.65100000      68.95300000 
H      57.57300000      48.13300000      69.35200000 
H      58.57900000      45.26100000      69.18100000 
H      59.09700000      45.91200000      71.37300000 
H      60.75300000      46.53800000      69.47300000 
H      60.24100000      46.85400000      67.77300000 
H      60.14400000      47.99900000      69.26200000 
N      57.74100000      48.04000000      66.67700000 
C      57.94400000      48.51200000      65.55400000 
C      58.80800000      48.81600000      64.65100000 
O      59.75500000      50.05200000      65.54700000 
C      56.41400000      48.89900000      64.78700000 
C      56.26900000      49.98700000      64.99200000 
C      56.46500000      51.36600000      64.06000000 
C      55.29700000      50.90300000      66.27600000 
N      55.98300000      52.81700000      64.61800000 
C      55.31000000      52.03500000      65.69400000 
C      54.84500000      50.41800000      67.11600000 
C      54.46100000      53.07300000      66.92600000 
C      53.94600000      51.09500000      68.10300000 
C      53.89700000      52.52000000      67.78400000 
H      58.12700000      49.23900000      67.36200000 
H      57.96900000      47.19800000      65.03100000 
H      56.49100000      48.62700000      63.76900000 
H      55.73900000      48.21300000      65.22200000 
H      57.01500000      51.29800000      63.31700000 
H      56.02500000      53.25800000      64.30600000 
H      54.81900000      49.13700000      67.44600000 
H      54.45900000      54.21200000      66.44400000 
H      53.56100000      50.79100000      68.89400000 
H      53.42700000      53.12800000      68.38800000 
N      59.36900000      48.91000000      63.59800000 
C      60.36000000      49.38600000      62.65400000 
C      59.36900000      50.35200000      61.76500000 
O      58.48700000      50.34900000      61.52300000 
C      61.06000000      48.59300000      61.90400000 
C      61.65700000      47.49600000      62.47400000 
O      61.90600000      46.12200000      62.01900000 
O      62.39100000      47.73000000      63.85100000 
H      58.67700000      48.10800000      63.05300000 
H      60.93400000      49.99600000      63.34900000 
H      60.32800000      47.96200000      61.14800000 
H      61.78400000      49.01700000      61.27500000 
N      60.45600000      51.50600000      61.37900000 
C      60.02800000      52.28900000      60.27000000 
C      60.97000000      52.69400000      59.19400000 
O      61.86100000      52.58000000      59.63100000 
C      58.96500000      53.71000000      60.73300000 
C      60.20100000      54.41800000      61.51600000 
C      59.58600000      55.79100000      62.10400000 
O      60.33000000      56.47200000      62.87400000 
O      58.29800000      56.06400000      61.83800000 
H      61.02900000      51.54900000      61.49200000 
H      58.96000000      51.77600000      59.65400000 
H      58.68000000      54.11600000      60.01100000 
H      58.37100000      53.34600000      61.47900000 
H      60.62900000      54.05300000      62.26100000 
H      60.87700000      54.87500000      60.86500000 
N      61.04000000      52.94300000      58.36500000 
C      61.23800000      53.41600000      56.96900000 
C      61.89300000      54.80200000      56.90000000 
O      60.13200000      55.60700000      56.78600000 
C      61.18100000      52.76200000      55.56100000 
C      61.28700000      51.37300000      55.63100000 
C      60.41800000      50.54600000      54.43900000 
C      62.90800000      50.88300000      55.83900000 
H      59.34500000      52.99000000      57.73300000 
H      62.66300000      53.02500000      57.41500000 
H      60.20100000      52.97700000      55.49400000 
H      61.77500000      53.15900000      54.94500000 
H      60.80400000      50.74800000      56.48800000 
H      60.80200000      49.58900000      54.30100000 
H      59.84500000      50.87500000      54.29700000 
H      61.26100000      51.09900000      53.39000000 
H      62.89400000      49.64300000      55.70200000 
H      63.31900000      51.12000000      54.89300000 
H      63.24600000      51.08900000      56.54000000 
N      66.81300000      54.15900000      56.09000000 
C      67.19800000      53.96900000      57.51400000 
C      66.11000000      53.31500000      58.49700000 
O      65.21100000      53.60400000      58.01100000 
C      68.29700000      54.92600000      58.03700000 
C      69.33600000      55.60100000      57.47600000 
C      67.01400000      56.30500000      58.07800000 
H      66.20500000      54.61800000      55.97600000 
H      68.13500000      53.02800000      57.38500000 
H      68.34600000      54.80300000      59.04200000 
H      69.83300000      56.15800000      57.70200000 
H      70.02700000      54.49300000      57.24400000 
H      69.12700000      55.72600000      56.21300000 
H      67.76500000      57.20500000      58.71300000 
H      66.84300000      56.66500000      57.18100000 
H      66.27500000      56.12800000      58.75800000 
N      66.52500000      52.80900000      59.25200000 
C      65.49600000      52.23700000      60.20300000 
C      65.86100000      52.88600000      61.87800000 
O      66.68500000      53.12200000      62.17200000 
C      66.25600000      50.67900000      60.48700000 
C      65.83100000      49.98700000      59.50000000 
C      66.77100000      48.40400000      59.53300000 
C      64.55600000      49.27000000      59.12400000 
H      67.49000000      52.59300000      59.59800000 
H      64.65100000      52.20100000      59.97200000 
H      66.98800000      50.67100000      61.02200000 
H      65.30800000      50.23800000      61.58000000 
H      66.28600000      50.23700000      58.60900000 
H      66.77200000      47.88500000      58.84300000 
H      67.86300000      48.80400000      59.79200000 
H      66.51200000      47.96700000      60.56200000 
H      64.39200000      48.73200000      58.28100000 
H      64.07700000      48.75500000      59.93500000 
H      63.80700000      50.18100000      59.05800000 
N      64.29900000      53.39200000      62.10000000 
C      64.23000000      54.11400000      63.45600000 
C      63.29700000      53.41900000      64.36200000 
O      62.30100000      53.83300000      64.39900000 
C      64.01500000      55.54800000      63.04000000 
O      63.40300000      55.76000000      62.32200000 
C      65.36700000      56.15200000      62.66700000 
H      63.83200000      53.27000000      61.74600000 
H      65.50500000      53.96500000      64.03300000 
H      63.91000000      56.03100000      64.30900000 
H      61.97300000      55.87000000      62.89700000 
H      65.09400000      57.46600000      62.58700000 
H      66.25100000      56.20300000      63.29500000 
H      65.54000000      55.92600000      61.71800000 
N      63.60900000      52.41100000      65.06400000 
C      62.55800000      51.75200000      65.72000000 
C      62.24500000      52.38000000      66.83100000 
O      62.76900000      53.32500000      67.58100000 
C      63.35700000      50.39000000      66.55300000 
C      64.79000000      50.69300000      66.30600000 
C      65.14900000      51.66700000      65.05000000 
H      61.76200000      51.36000000      65.17000000 
H      62.95200000      50.02400000      67.20600000 
H      63.13800000      49.44200000      65.50500000 
H      65.02200000      51.30500000      67.31900000 
H      65.50700000      49.81100000      66.27300000 
H      65.66500000      52.29700000      65.26000000 
H      65.17300000      51.09900000      64.26900000 
N      60.88100000      52.26300000      67.47000000 
C      60.13900000      53.05000000      68.34700000 
C      59.20700000      51.99400000      68.85600000 
O      58.38800000      51.34400000      68.44600000 
C      59.21800000      54.04400000      67.99100000 
C      59.17300000      55.11100000      68.86400000 
C      59.50800000      56.47100000      68.86800000 
C      59.56700000      57.19400000      67.63900000 
N      60.69900000      58.66300000      67.80600000 
H      60.21300000      51.46400000      66.73300000 
H      60.97000000      53.19800000      69.12000000 
H      60.30700000      54.74900000      67.14600000 
H      58.75600000      53.87000000      67.20700000 
H      57.73800000      55.34300000      68.72300000 
H      59.00400000      54.72600000      69.90300000 
H      59.34200000      57.10600000      69.81800000 
H      60.77700000      56.34900000      69.01800000 
H      59.61300000      56.89600000      66.89400000 
H      58.23800000      57.63000000      67.62200000 
H      59.97100000      59.21100000      66.83600000 
H      59.88200000      59.17700000      68.55500000 
H      60.77700000      58.47100000      67.73500000 
N      58.82100000      51.47900000      70.48800000 
C      58.37200000      51.24400000      71.14300000 
C      57.27600000      52.01300000      71.59600000 
O      57.28800000      52.96700000      71.85100000 
C      59.00600000      50.48300000      72.45400000 
H      60.09300000      52.50300000      70.97800000 
H      57.90900000      50.21700000      70.39700000 
H      58.33700000      49.72400000      72.86400000 
H      59.89400000      49.64000000      71.89800000 
H      59.41900000      51.02600000      72.94700000 
N      55.85900000      51.08800000      71.91800000 
C      54.87500000      51.78400000      72.48600000 
C      55.00600000      52.28900000      74.08000000 
O      56.11600000      51.75800000      74.56200000 
C      53.68500000      51.41900000      72.19100000 
C      52.14600000      51.75800000      72.43600000 
C      52.35300000      53.11100000      71.43500000 
C      51.09500000      51.38000000      73.22200000 
N      50.40700000      53.39400000      72.09500000 
C      50.26200000      52.55300000      72.73200000 
C      50.86800000      50.54600000      73.98600000 
C      48.80600000      52.44900000      73.51300000 
C      49.68400000      50.40400000      74.52300000 
C      48.70100000      51.33900000      74.31800000 
H      55.98500000      50.28300000      71.72000000 
H      54.72500000      52.97200000      71.88700000 
H      53.69900000      50.54100000      71.27900000 
H      53.57500000      50.06800000      73.21100000 
H      52.48800000      53.47200000      71.08600000 
H      50.31500000      54.12800000      71.61100000 
H      51.53300000      49.66600000      74.25600000 
H      48.17700000      53.19600000      73.20900000 
H      49.30600000      49.59700000      75.29200000 
H      47.57100000      51.36100000      74.80300000 
N      46.09300000      51.18200000      68.61700000 
C      47.44200000      51.74800000      68.11200000 
C      47.18400000      52.05600000      66.59300000 
O      47.17400000      51.37800000      65.87700000 
C      48.54600000      50.80000000      68.33600000 
C      48.65300000      50.33300000      69.41800000 
C      49.68800000      51.75600000      67.64800000 
C      48.22500000      48.97300000      70.28600000 
H      45.77000000      50.43400000      68.12300000 
H      47.58000000      52.62600000      68.67400000 
H      48.38300000      49.98700000      67.63500000 
H      49.93400000      50.28400000      69.97100000 
H      48.30800000      51.21500000      70.48800000 
H      50.87500000      50.65500000      67.79600000 
H      49.75100000      51.83000000      66.75600000 
H      50.10400000      52.31200000      68.32900000 
H      48.22400000      48.78000000      70.99500000 
H      46.99500000      49.01000000      69.74100000 
H      48.64200000      48.18900000      69.43400000 
N      50.68100000      55.31200000      61.55600000 
C      51.13300000      56.76900000      61.20900000 
C      52.12100000      57.15600000      60.32300000 
O      52.69600000      57.81500000      60.00900000 
C      52.00100000      56.95000000      62.72300000 
C      53.23400000      56.09500000      62.89900000 
C      54.21300000      56.74000000      63.94100000 
C      55.50400000      56.54100000      63.40500000 
N      56.21800000      57.25600000      62.55600000 
H      51.34800000      54.55800000      61.55800000 
H      50.45200000      57.25000000      61.38000000 
H      52.36700000      58.17200000      62.48200000 
H      51.39300000      57.07600000      63.47100000 
H      53.01000000      55.28300000      63.18200000 
H      53.86600000      56.10200000      61.94500000 
H      54.03300000      57.87100000      64.08800000 
H      53.91200000      56.32500000      65.01700000 
H      56.39800000      56.86700000      64.80900000 
H      55.85000000      55.53300000      63.47100000 
H      57.10100000      57.07000000      62.32500000 
H      55.59600000      57.42300000      61.87700000 
H      56.26400000      58.45000000      62.89000000 
N      54.16600000      55.19400000      56.58900000 
C      54.86300000      54.12900000      56.12000000 
C      55.43600000      53.57500000      56.91200000 
O      56.68000000      53.93500000      57.73100000 
C      55.68400000      54.49100000      54.87100000 
C      54.99300000      54.65900000      53.51100000 
O      54.57600000      53.73300000      53.11400000 
N      54.92100000      56.03100000      53.24400000 
H      54.44900000      56.03700000      56.57100000 
H      54.07000000      53.38300000      55.57700000 
H      56.23000000      55.69200000      55.23300000 
H      56.53500000      53.90800000      54.76100000 
H      54.29900000      55.96400000      52.13400000 
H      55.02700000      56.66300000      53.34800000 
N      55.12100000      51.95900000      57.41800000 
C      55.61600000      51.25600000      58.46700000 
C      56.05400000      49.84200000      57.91300000 
O      55.16900000      49.42300000      56.93800000 
C      54.67100000      51.01300000      59.58500000 
C      54.69700000      49.91700000      60.52400000 
C      54.64400000      52.64000000      60.40300000 
H      54.38000000      51.80000000      56.91600000 
H      56.62300000      51.70200000      58.80700000 
H      53.63100000      50.99700000      59.10000000 
H      54.17700000      50.03400000      61.33100000 
H      54.81200000      49.08300000      60.03000000 
H      55.97000000      50.07500000      61.03000000 
H      53.82100000      52.43500000      61.11300000 
H      55.50200000      52.65300000      60.84900000 
H      54.38200000      53.26700000      59.76100000 
N      56.83800000      49.29500000      58.03100000 
C      57.34900000      47.89400000      57.69700000 
C      57.89600000      47.16300000      58.78500000 
O      59.03800000      47.44000000      59.61900000 
C      59.01800000      48.33200000      56.97200000 
C      59.13900000      46.82500000      56.22800000 
C      59.13400000      46.73200000      54.61600000 
N      60.49900000      46.25900000      54.04200000 
C      60.83800000      45.31800000      53.62600000 
N      61.58900000      44.16900000      52.91700000 
N      59.18600000      43.82500000      53.68000000 
H      57.75800000      49.81100000      58.96800000 
H      56.69800000      47.55300000      57.17800000 
H      58.32100000      48.90200000      55.90400000 
H      59.30200000      48.70800000      57.22600000 
H      60.63100000      47.11400000      56.36700000 
H      59.17300000      46.11500000      56.72600000 
H      58.32800000      46.16900000      54.56700000 
H      58.98600000      47.58800000      54.24500000 
H      60.99800000      46.62400000      53.99800000 
H      62.53800000      45.36100000      52.99000000 
H      61.90000000      43.92400000      52.75500000 
H      58.78100000      44.16700000      53.96500000 
H      59.78600000      43.02300000      53.18800000 
N      57.07800000      46.10600000      59.24500000 
C      57.08100000      45.10500000      60.24000000 
C      56.56800000      45.77500000      61.61300000 
O      56.68900000      46.92600000      61.96100000 
C      58.67600000      44.86500000      60.74600000 
C      59.27400000      44.35300000      59.76400000 
O      59.01200000      43.70600000      58.56500000 
N      61.03800000      44.63800000      59.73800000 
H      56.29000000      45.98000000      58.65300000 
H      56.77600000      44.40900000      60.04200000 
H      59.13700000      45.66000000      61.28000000 
H      58.59300000      44.00900000      61.44300000 
H      61.45600000      44.26400000      59.02900000 
H      61.16200000      45.17400000      60.50300000 
N      55.75700000      44.98700000      62.34800000 
C      55.08200000      45.06900000      63.41500000 
C      55.03500000      43.88900000      64.19400000 
O      54.74600000      42.94700000      63.86200000 
C      53.49000000      45.60300000      63.32400000 
C      52.54800000      46.04300000      64.33200000 
C      53.33100000      46.71000000      65.61800000 
C      51.54300000      46.29700000      63.96400000 
H      55.56100000      43.93600000      61.83200000 
H      55.65100000      45.98100000      64.03300000 
H      53.71300000      46.58600000      62.66200000 
H      53.19200000      44.95600000      62.52300000 
H      52.47800000      44.78800000      64.89700000 
H      52.48000000      46.91500000      66.25300000 
H      54.03100000      46.41800000      65.92100000 
H      53.41800000      47.80500000      65.05200000 
H      50.55800000      46.48400000      64.75300000 
H      51.44400000      47.42400000      63.44500000 
H      50.84600000      45.68900000      63.03000000 
N      56.24100000      39.54800000      61.55100000 
C      56.15700000      40.73600000      60.18600000 
C      54.88800000      40.42700000      59.67800000 
O      54.50200000      40.11800000      58.37200000 
C      57.35400000      39.81300000      59.00200000 
C      58.72000000      39.84800000      59.28500000 
O      58.98900000      40.81700000      60.77200000 
O      59.44800000      39.39000000      58.85000000 
H      56.99500000      40.27200000      62.06700000 
H      56.47200000      41.34600000      60.25300000 
H      56.97300000      38.69400000      59.00100000 
H      57.06100000      40.26900000      58.21300000 
H      54.21256512      47.57703411      49.46572892 
H      55.53321820      50.64919218      47.92684918 
H      53.85331671      45.21958053      72.33790861 
H      62.88902271      54.88631315      56.92881079 
H      67.50050571      54.52522057      55.63920249 
H      54.30526257      52.88268985      74.47560008 
H      46.18087543      50.91350802      69.47151154 
H      47.01422692      52.99538362      66.29511493 
H      50.33621328      55.29432340      62.38714960 
H      52.46826772      56.50659609      59.64647972 
H      53.38599226      55.26162789      56.14513697 
H      55.29529418      43.91632976      65.15914249 
H      55.42180004      39.44279416      61.90855162 
H      54.09622216      40.40738175      60.28849404 
