536
Properties=species:S:1:pos:R:3 pbc="F F F"
N      32.29000000      49.36000000      55.15700000 
C      33.34400000      48.92200000      55.32600000 
C      34.13300000      48.80500000      54.39400000 
O      34.13200000      48.95000000      52.98600000 
C      32.73400000      47.06400000      55.35900000 
O      34.07100000      46.26900000      55.48400000 
H      31.29700000      49.08700000      54.09900000 
H      33.51700000      49.06800000      56.22600000 
H      32.30300000      47.02900000      55.99800000 
H      32.49300000      46.95000000      54.21700000 
H      34.08000000      46.02300000      55.54000000 
N      34.82100000      46.90600000      51.42900000 
C      33.84000000      46.97100000      50.07700000 
C      34.48600000      46.11200000      48.66000000 
O      33.89800000      45.50800000      48.26400000 
C      33.44700000      48.13100000      49.73300000 
C      32.53100000      48.39600000      48.84000000 
C      33.06800000      48.71100000      47.38400000 
C      31.17900000      48.14900000      48.66600000 
C      32.05600000      48.82400000      46.27500000 
C      30.24300000      48.08900000      47.70100000 
C      31.03600000      48.49100000      46.62700000 
O      30.06800000      48.53800000      45.18000000 
H      34.83400000      47.45700000      51.81900000 
H      33.02100000      46.20900000      50.36300000 
H      32.86800000      48.69300000      50.97200000 
H      34.44900000      48.95300000      49.84200000 
H      34.13600000      49.03600000      47.44400000 
H      30.81300000      47.80500000      49.76900000 
H      32.72500000      49.11600000      45.44700000 
H      29.37100000      47.90700000      47.78500000 
H      29.43300000      48.35200000      45.53100000 
N      35.54600000      42.62900000      48.92800000 
C      34.23700000      41.75400000      49.18700000 
C      33.89100000      41.93100000      47.75800000 
O      33.19300000      40.43500000      47.17100000 
C      33.66100000      42.10900000      50.10300000 
O      34.18400000      42.32200000      51.38300000 
C      32.44300000      41.22600000      50.33700000 
H      35.63000000      43.43000000      49.47200000 
H      34.66600000      40.74400000      49.29400000 
H      33.07000000      43.25500000      49.81800000 
H      34.67400000      43.06500000      51.37500000 
H      31.64100000      41.59200000      51.13500000 
H      31.63600000      41.20400000      49.39100000 
H      32.62600000      40.36000000      50.61500000 
N      33.51300000      42.59800000      47.09000000 
C      32.89900000      43.16200000      45.90800000 
C      33.38100000      42.17000000      44.79600000 
O      32.97100000      41.26300000      43.65500000 
C      32.49200000      44.15400000      45.33400000 
O      31.60200000      44.20300000      44.47400000 
H      33.92600000      43.65600000      47.45800000 
H      31.83700000      42.27600000      45.90000000 
H      32.10800000      44.75900000      46.33500000 
H      33.42300000      44.76000000      45.17700000 
H      31.37200000      45.10000000      43.98900000 
N      35.47700000      39.61200000      45.07000000 
C      35.14800000      38.04500000      45.77500000 
C      33.90300000      37.74600000      45.00400000 
O      33.70400000      36.74000000      44.66200000 
C      35.65200000      37.80100000      46.97100000 
C      36.71000000      37.82900000      47.65100000 
C      37.87700000      37.01700000      47.24400000 
C      36.89600000      38.45900000      48.88500000 
C      38.73800000      37.10400000      47.69400000 
C      38.26500000      38.11700000      49.06700000 
C      39.32600000      37.40300000      48.68000000 
H      35.70600000      40.25400000      46.14000000 
H      35.90700000      37.51600000      45.09800000 
H      34.68400000      38.78200000      47.72700000 
H      34.73900000      36.90500000      47.35100000 
H      37.44100000      36.48600000      45.91700000 
H      36.39400000      38.89100000      49.25200000 
H      39.71500000      36.21800000      47.01200000 
H      38.60200000      38.81000000      50.41100000 
H      40.23000000      37.39000000      49.14700000 
N      32.95200000      38.71700000      45.34400000 
C      31.41000000      38.32300000      45.10600000 
C      31.47000000      38.04300000      43.45100000 
O      30.72700000      37.28700000      43.05800000 
C      30.71100000      39.57000000      45.21500000 
C      29.18800000      39.22900000      45.77900000 
C      29.15400000      38.29700000      46.86100000 
C      28.63200000      40.68500000      45.77200000 
H      33.14600000      39.45200000      45.92400000 
H      31.15200000      37.47000000      45.41900000 
H      31.11800000      40.05200000      46.34300000 
H      30.69300000      40.26400000      44.78200000 
H      28.84500000      38.59300000      44.92700000 
H      28.08400000      38.23100000      47.30900000 
H      29.62400000      37.41600000      46.93100000 
H      29.68200000      39.07600000      47.93500000 
H      27.24300000      40.22800000      46.21500000 
H      28.87500000      41.06800000      46.70900000 
H      28.46800000      41.04100000      44.99300000 
N      32.50300000      39.24200000      42.83900000 
C      32.06400000      38.61600000      41.23600000 
C      32.88600000      37.81000000      40.82000000 
O      32.31800000      36.83400000      40.13600000 
C      33.29400000      40.03700000      40.90400000 
O      32.49700000      41.27000000      41.04800000 
C      33.52200000      39.89000000      39.37900000 
H      32.70700000      39.66900000      43.29500000 
H      31.48200000      38.96400000      40.87600000 
H      34.19800000      39.95500000      41.29900000 
H      32.80800000      41.50000000      42.06400000 
H      33.84400000      40.61900000      38.95700000 
H      33.89000000      39.17000000      39.07300000 
H      32.41500000      39.81800000      38.75200000 
N      32.82600000      34.73800000      42.52500000 
C      31.86100000      33.88600000      42.90000000 
C      31.03100000      33.46600000      41.97100000 
O      30.40800000      32.79600000      41.56500000 
C      31.40400000      33.90300000      44.31400000 
H      33.00700000      35.73100000      43.19300000 
H      32.44000000      32.78000000      42.88600000 
H      30.65500000      33.33000000      44.50500000 
H      32.09200000      34.15700000      44.96000000 
H      30.75700000      35.14900000      44.22400000 
N      30.36200000      34.86500000      41.24300000 
C      29.36700000      34.86200000      40.14600000 
C      30.03800000      34.10700000      39.16700000 
O      29.27100000      33.55700000      38.30500000 
C      28.80400000      36.25200000      40.02000000 
C      28.21800000      36.84100000      41.42300000 
C      28.32700000      36.25000000      38.65000000 
C      26.74800000      36.18100000      41.05500000 
H      30.92600000      35.79500000      41.72600000 
H      28.60300000      34.27100000      40.52400000 
H      30.04300000      37.01900000      40.07600000 
H      28.49000000      36.66200000      41.94600000 
H      27.97700000      37.88800000      41.03100000 
H      27.98500000      37.61700000      38.55000000 
H      29.12100000      36.35200000      37.81200000 
H      27.55900000      35.84300000      38.53000000 
H      26.10900000      36.51800000      41.98800000 
H      26.17700000      36.31700000      40.25500000 
H      26.78200000      35.02100000      41.18800000 
N      29.78500000      30.47500000      39.83800000 
C      28.79100000      29.74300000      39.62100000 
C      28.41300000      29.71900000      38.18100000 
O      27.78400000      28.73400000      37.97000000 
C      27.84800000      30.76700000      40.62400000 
C      27.19300000      29.96000000      41.73500000 
C      27.02700000      28.63700000      41.66600000 
C      28.57000000      30.74900000      43.00400000 
H      30.25800000      31.39800000      40.35100000 
H      28.85000000      28.95100000      40.11500000 
H      27.92600000      31.66600000      40.50500000 
H      26.61500000      30.59600000      39.76300000 
H      26.38600000      30.55600000      42.11500000 
H      26.49700000      28.26100000      42.74500000 
H      26.53500000      28.32700000      40.99500000 
H      28.06200000      28.06000000      41.84300000 
H      28.11000000      30.08600000      43.78400000 
H      29.24400000      30.05200000      42.60800000 
H      28.38300000      31.40900000      43.02000000 
N      19.02500000      32.03200000      44.87900000 
C      19.66900000      32.15700000      45.94000000 
C      20.73500000      33.14200000      46.51200000 
O      21.03700000      33.66900000      46.98200000 
C      19.75800000      30.79300000      46.52600000 
C      20.82900000      30.74100000      48.10600000 
C      19.83300000      31.35100000      49.23100000 
C      20.69300000      29.16300000      48.44300000 
H      18.96700000      31.27700000      44.36800000 
H      18.80500000      32.67600000      46.86900000 
H      18.85900000      30.22800000      46.71200000 
H      20.49500000      30.13400000      46.01400000 
H      21.23400000      31.15600000      47.95800000 
H      20.04000000      31.31200000      49.99500000 
H      19.50200000      32.51800000      48.81100000 
H      18.58500000      31.02900000      49.16300000 
H      21.20800000      29.28500000      49.44600000 
H      19.84000000      28.74200000      48.56400000 
H      21.23500000      28.77300000      47.79100000 
N      21.77700000      32.56200000      45.23200000 
C      22.94200000      33.67500000      45.39600000 
C      22.72800000      34.83200000      45.36500000 
O      23.24600000      35.74600000      45.90500000 
C      24.04600000      32.91700000      44.53500000 
O      23.63100000      33.31800000      42.88800000 
C      24.34500000      31.56900000      44.72100000 
H      21.63700000      31.97500000      44.64200000 
H      23.49600000      33.38300000      46.46600000 
H      24.97700000      33.76500000      44.59000000 
H      22.54500000      33.01800000      42.86700000 
H      25.21100000      31.39600000      43.88700000 
H      24.86200000      31.50800000      45.68100000 
H      23.80200000      31.05400000      44.46100000 
N      21.84700000      35.23600000      44.58100000 
C      21.28600000      36.54900000      44.25900000 
C      20.83900000      37.27900000      45.58800000 
O      21.25500000      38.25900000      46.17600000 
C      20.41400000      36.97800000      43.23000000 
O      20.88100000      36.44500000      42.02200000 
H      21.29400000      34.62700000      43.85800000 
H      22.25700000      37.35700000      44.07900000 
H      19.47600000      36.15900000      43.43900000 
H      20.00900000      37.96500000      43.13600000 
H      20.78700000      35.63500000      41.62900000 
N      19.79100000      36.18200000      46.22600000 
C      19.37600000      36.73200000      47.59600000 
C      20.59000000      36.69100000      48.40700000 
O      20.40300000      37.96000000      49.40800000 
H      19.73600000      35.63400000      45.82900000 
H      18.80300000      37.76700000      47.41800000 
H      18.73200000      36.03000000      47.81000000 
N      21.13500000      36.44100000      48.58600000 
C      22.64500000      36.20800000      49.47700000 
C      23.04000000      37.47000000      49.08900000 
O      23.62700000      38.30800000      50.38700000 
C      23.32400000      34.93700000      49.56700000 
C      22.74000000      33.80600000      49.74100000 
C      23.58400000      32.37700000      49.37000000 
C      22.55500000      33.53000000      51.29400000 
H      21.47600000      35.29500000      47.92900000 
H      22.09300000      36.28500000      50.44100000 
H      23.78300000      34.96200000      48.34400000 
H      24.28700000      35.22500000      49.98000000 
H      21.84400000      33.72100000      49.32500000 
H      23.23300000      31.74800000      49.77000000 
H      23.77100000      32.59200000      48.41500000 
H      24.63500000      32.71500000      49.80700000 
H      22.09600000      32.79500000      51.58800000 
H      23.38600000      33.84600000      51.89300000 
H      21.84800000      34.62000000      51.69800000 
N      23.46800000      37.94300000      47.76800000 
C      23.87400000      39.22500000      47.87600000 
C      23.42300000      40.47600000      48.37300000 
O      23.66700000      41.30700000      48.71000000 
C      24.32800000      39.49900000      46.37000000 
O      23.24200000      39.93600000      45.61800000 
C      25.22600000      38.22400000      46.00300000 
H      23.10600000      37.36000000      47.41900000 
H      25.01000000      39.29100000      48.39600000 
H      25.03400000      40.45000000      46.35700000 
H      22.56000000      39.22800000      45.68500000 
H      25.53000000      38.81600000      44.52600000 
H      26.07300000      38.26800000      46.23300000 
H      24.81900000      37.72000000      45.63100000 
N      21.89100000      40.17200000      48.23800000 
C      20.98000000      41.26700000      48.52300000 
C      21.25200000      41.49300000      50.39100000 
O      21.04500000      42.47900000      50.63400000 
C      19.53700000      40.90700000      48.67100000 
C      19.07300000      40.52400000      47.08400000 
C      19.84700000      41.34900000      45.85800000 
C      18.15100000      40.03500000      46.60900000 
C      19.58200000      41.13000000      44.72200000 
C      17.63300000      39.71300000      45.68400000 
C      18.40300000      40.24400000      44.36700000 
H      21.36600000      39.36000000      47.81000000 
H      21.31600000      42.20500000      48.25700000 
H      19.25000000      39.98000000      48.98800000 
H      18.91400000      41.79400000      48.89900000 
H      20.60200000      41.76700000      46.13300000 
H      17.54400000      39.55400000      47.58100000 
H      19.87900000      41.35600000      43.98200000 
H      16.80200000      39.01700000      45.33300000 
H      18.02400000      39.98300000      43.45600000 
N      21.41300000      40.57500000      50.79100000 
C      21.70700000      40.47700000      52.27600000 
C      23.12600000      40.41900000      52.84400000 
O      23.79000000      40.23000000      53.10900000 
C      21.34300000      39.05800000      52.93400000 
C      19.85000000      38.72700000      53.39900000 
C      18.93100000      39.20200000      52.07100000 
C      19.59800000      37.57900000      53.57800000 
H      21.47100000      39.58400000      50.46700000 
H      20.93200000      41.28200000      52.82700000 
H      21.64600000      38.28700000      52.26600000 
H      21.88500000      39.01800000      53.88900000 
H      19.59700000      39.69800000      54.16700000 
H      17.82900000      39.06000000      52.41100000 
H      18.98000000      40.29800000      51.83400000 
H      19.13700000      38.67500000      51.30500000 
H      18.56500000      37.33900000      54.13000000 
H      19.76100000      36.94700000      53.09900000 
H      20.30300000      37.26100000      54.71400000 
N      23.51700000      42.04800000      51.93100000 
C      25.00000000      42.23700000      51.77800000 
C      25.80000000      42.67400000      53.18800000 
O      26.51100000      42.41300000      53.34200000 
C      25.30000000      43.54400000      50.98200000 
C      26.46500000      43.05500000      50.21800000 
O      27.25400000      43.81500000      50.44200000 
N      26.38100000      42.09100000      49.33400000 
H      22.72700000      42.63000000      51.58700000 
H      25.23900000      41.47200000      51.68300000 
H      24.13600000      43.09800000      49.84500000 
H      24.97300000      44.14100000      51.03700000 
H      27.30600000      41.82500000      48.82000000 
H      25.63200000      41.58100000      48.96600000 
N      24.93100000      43.86400000      53.86700000 
C      25.78800000      44.52300000      54.85000000 
C      26.22400000      43.41400000      55.90100000 
O      27.40100000      43.56700000      56.58800000 
C      24.81200000      45.32900000      55.40100000 
C      23.95300000      45.64500000      54.27500000 
C      23.69100000      44.54500000      53.53300000 
H      26.71800000      44.77600000      54.50600000 
H      24.15500000      44.97700000      56.45800000 
H      25.42700000      46.31100000      55.91500000 
H      23.09600000      46.21100000      54.61400000 
H      24.28800000      46.38600000      53.74600000 
H      22.91700000      43.84400000      54.17700000 
H      23.53100000      44.48900000      52.73300000 
N      25.23700000      42.38300000      56.05800000 
C      25.64700000      41.20200000      57.08300000 
C      26.50700000      40.39800000      56.57900000 
O      26.12500000      39.54900000      55.88400000 
C      24.68500000      40.50400000      57.75800000 
C      24.89200000      39.94900000      58.67900000 
C      25.95300000      39.63200000      59.46200000 
C      23.84400000      39.00100000      59.53800000 
N      25.87000000      38.48000000      60.66800000 
C      24.66800000      38.32900000      60.57200000 
C      22.63700000      38.82800000      59.38900000 
C      23.77100000      37.22600000      61.46300000 
C      21.69300000      37.82200000      60.18600000 
C      22.51600000      37.31100000      61.15700000 
H      24.75200000      42.24600000      55.80700000 
H      26.54900000      41.89800000      58.10900000 
H      23.82600000      41.68900000      58.18300000 
H      24.03500000      40.25900000      57.03400000 
H      27.03100000      39.96800000      59.36100000 
H      26.46900000      38.18500000      60.98800000 
H      21.96100000      39.36300000      58.49800000 
H      24.38000000      36.86400000      62.13800000 
H      20.79700000      37.75300000      60.03600000 
H      21.89200000      36.43800000      61.84100000 
N      28.12700000      40.55600000      56.32000000 
C      28.98800000      39.67700000      55.60800000 
C      28.75800000      38.90500000      55.51200000 
O      28.96800000      37.26400000      54.72200000 
C      30.34700000      40.19500000      55.54600000 
C      30.33700000      41.50100000      54.89800000 
C      30.21800000      41.94000000      53.75300000 
C      30.61600000      42.82300000      55.52300000 
C      30.25400000      42.99800000      52.87600000 
C      30.89700000      44.02400000      55.08700000 
C      30.53300000      43.83000000      53.74400000 
O      30.64000000      45.36800000      53.03400000 
H      28.28800000      41.46000000      56.77800000 
H      28.38300000      39.91800000      54.53300000 
H      30.51300000      40.34400000      56.66200000 
H      30.74100000      39.55500000      55.14300000 
H      29.86600000      40.78600000      52.87300000 
H      30.92800000      42.61700000      56.87400000 
H      30.07300000      43.03500000      51.87700000 
H      31.10500000      44.83300000      55.68800000 
H      30.62800000      45.94700000      53.59400000 
N      28.34000000      37.63200000      57.54000000 
C      28.18900000      36.63000000      57.35800000 
C      27.35900000      35.95500000      56.51400000 
O      27.30500000      34.46300000      56.32200000 
C      27.71900000      36.63900000      58.88200000 
C      27.55200000      35.29500000      59.41200000 
C      27.21800000      35.73100000      60.99900000 
O      27.06500000      36.20200000      61.24100000 
O      26.98300000      34.01000000      61.53800000 
H      28.29500000      38.59800000      57.73300000 
H      29.14500000      35.98000000      57.35200000 
H      28.45200000      37.07200000      59.45000000 
H      27.00100000      36.97200000      58.91100000 
H      26.63200000      34.68600000      59.00500000 
H      28.39900000      34.59900000      59.29200000 
N      26.10400000      36.80400000      56.20500000 
C      25.16300000      36.26300000      55.43300000 
C      25.48600000      36.56500000      53.99900000 
O      24.21500000      36.04900000      52.93300000 
C      23.82100000      37.00700000      55.93700000 
H      26.21300000      37.61000000      56.36000000 
H      24.95400000      35.12100000      55.52500000 
H      22.98400000      36.52800000      55.25800000 
H      23.72500000      36.68200000      56.81700000 
H      23.91800000      37.96200000      55.69400000 
N      26.29300000      36.93400000      53.28900000 
C      26.48600000      37.72000000      52.21700000 
C      27.69600000      36.52900000      51.31100000 
O      27.39700000      35.54800000      50.81800000 
C      26.91100000      38.80700000      52.28500000 
O      26.93700000      39.51100000      50.50100000 
H      27.09800000      37.23600000      54.25200000 
H      25.64900000      37.24500000      51.52400000 
H      25.94100000      39.51500000      52.48800000 
H      27.46300000      39.22700000      52.45900000 
H      26.96700000      39.90400000      50.60300000 
N      28.87600000      36.96200000      51.52400000 
C      29.77000000      36.68400000      50.86200000 
C      30.19300000      34.76400000      51.02800000 
O      30.25500000      34.27900000      50.32500000 
C      31.38900000      37.26400000      50.85900000 
C      32.27200000      36.64400000      50.06400000 
C      32.20100000      36.57500000      48.72800000 
C      33.69000000      37.46400000      50.60700000 
H      29.09100000      37.95800000      52.20300000 
H      29.58700000      36.43800000      49.62800000 
H      31.01800000      38.19500000      50.61800000 
H      31.40800000      37.29200000      51.94100000 
H      32.47800000      35.71200000      50.45000000 
H      32.92700000      36.22800000      48.11300000 
H      31.16600000      35.97300000      48.36300000 
H      31.91500000      37.57300000      48.33000000 
H      34.55300000      36.88100000      49.94200000 
H      33.48000000      38.50300000      49.91000000 
H      33.83700000      37.48300000      51.45500000 
N      30.15100000      34.72600000      52.45700000 
C      30.54300000      33.28300000      52.71100000 
C      29.45600000      32.42900000      52.18700000 
O      30.02300000      31.25200000      51.68400000 
C      30.85900000      33.37400000      54.24300000 
C      32.46400000      33.66200000      54.64600000 
C      32.57100000      35.12500000      54.47900000 
C      32.63600000      33.54300000      55.87500000 
H      30.02100000      35.35900000      53.05800000 
H      31.61400000      33.10300000      52.06300000 
H      30.32000000      33.74700000      54.82500000 
H      30.86700000      32.15500000      54.46400000 
H      33.08800000      33.03400000      53.76400000 
H      33.58000000      35.36300000      54.57800000 
H      32.51400000      35.39300000      53.16700000 
H      31.95900000      35.61700000      54.80700000 
H      33.77300000      33.48800000      56.20800000 
H      32.12200000      33.74100000      56.59400000 
H      32.62400000      32.05700000      56.11800000 
N      28.48600000      32.43700000      52.42500000 
C      27.38300000      31.75300000      52.01900000 
C      27.41100000      31.55100000      50.58600000 
O      27.33900000      30.30700000      49.92100000 
C      25.90100000      32.05000000      52.31000000 
C      26.60400000      32.94500000      53.72500000 
C      27.65400000      33.68800000      53.52200000 
H      27.55600000      30.59600000      52.36900000 
H      25.68700000      32.79400000      51.73800000 
H      25.25200000      31.30400000      52.59200000 
H      25.60800000      33.62100000      53.98600000 
H      26.55000000      32.22200000      54.51000000 
H      27.56200000      34.34700000      52.83900000 
H      28.21900000      33.75400000      54.12000000 
N      27.60900000      32.46700000      49.73800000 
C      27.79200000      32.39900000      48.42200000 
C      29.06200000      31.60100000      47.61300000 
O      28.93200000      31.10500000      47.33100000 
C      27.97000000      34.08400000      47.66700000 
C      26.34300000      34.62600000      48.00300000 
C      28.19800000      33.43500000      46.28800000 
C      26.42000000      35.80900000      47.65300000 
H      27.69600000      33.47100000      50.24300000 
H      26.87600000      31.93200000      47.98300000 
H      28.41300000      34.32800000      48.23100000 
H      25.76000000      34.08500000      47.38000000 
H      26.10200000      34.32200000      48.86600000 
H      28.09000000      34.97100000      45.77300000 
H      29.07000000      33.45500000      46.15200000 
H      27.45900000      33.27000000      45.77700000 
H      25.49400000      36.44000000      47.86100000 
H      27.14500000      36.47700000      48.35700000 
H      26.78000000      36.22000000      46.63100000 
N      30.01900000      31.75000000      48.58900000 
C      31.16600000      31.13300000      48.54000000 
C      31.10500000      29.25100000      48.55800000 
O      31.40900000      28.98100000      47.97700000 
C      32.44600000      31.65800000      49.11100000 
C      33.59600000      32.04300000      48.13800000 
C      33.90800000      31.54900000      47.38800000 
C      33.81900000      33.65300000      48.78000000 
C      35.12800000      31.89100000      46.41000000 
C      35.20900000      33.92200000      47.53300000 
C      35.37900000      33.21800000      46.78700000 
O      36.54900000      33.62200000      45.72300000 
H      30.03600000      32.63200000      49.46800000 
H      31.53300000      31.13900000      47.16400000 
H      32.09300000      32.43400000      49.94800000 
H      32.87100000      30.71100000      49.81100000 
H      33.63300000      30.34200000      47.01900000 
H      33.66200000      33.94200000      49.17500000 
H      35.46600000      31.27400000      45.53600000 
H      35.37800000      34.91400000      47.88700000 
H      36.87000000      34.48800000      46.08900000 
N      30.13400000      29.54500000      49.77800000 
C      29.99100000      27.72600000      49.80500000 
C      29.19300000      27.68400000      48.96200000 
O      29.43900000      26.07400000      48.25300000 
C      29.22100000      27.54400000      51.21800000 
H      30.05900000      29.97200000      50.20200000 
H      30.76400000      27.35700000      49.98500000 
H      28.99400000      26.88900000      51.42300000 
H      29.76800000      28.20900000      52.09200000 
H      28.18400000      28.53100000      51.20000000 
N      28.32200000      27.94800000      48.31100000 
C      27.31200000      27.62000000      47.29200000 
C      28.33600000      27.46300000      45.87900000 
O      28.06000000      26.55700000      45.20200000 
C      26.17800000      28.55100000      46.79700000 
C      25.59100000      28.22400000      45.74000000 
C      25.25300000      28.65700000      48.33600000 
H      27.96300000      29.03700000      48.73300000 
H      26.98800000      26.78800000      47.32900000 
H      26.73400000      29.71600000      46.90700000 
H      24.66000000      28.93400000      45.49800000 
H      26.24400000      28.55200000      44.70500000 
H      25.24500000      27.32000000      45.56900000 
H      24.54900000      29.13200000      47.93100000 
H      24.78400000      27.60400000      48.06500000 
H      25.62500000      28.74600000      48.82200000 
N      29.35900000      28.26900000      45.70800000 
C      30.05800000      28.36100000      44.74000000 
C      30.85400000      26.67800000      44.61000000 
O      30.92700000      26.29700000      43.81000000 
C      31.28800000      29.39300000      44.77200000 
O      30.68500000      30.67300000      44.78400000 
C      32.06000000      29.41200000      43.68800000 
H      29.28300000      29.25900000      46.55900000 
H      29.68300000      28.36200000      43.65500000 
H      31.69900000      29.25900000      45.56600000 
H      30.04800000      30.77900000      45.58200000 
H      32.79100000      30.10700000      43.56600000 
H      32.70500000      28.38700000      43.50600000 
H      31.59700000      29.41900000      42.67700000 
H      31.77105528      49.17747107      55.86930581 
H      35.07859110      48.53180171      54.57069228 
H      34.55200653      46.23357633      51.96331163 
H      35.41763592      46.29515169      48.34613703 
H      36.27749254      42.13203438      49.09516410 
H      34.35488363      41.96637376      44.69556582 
H      36.18059125      39.54880664      44.51235678 
H      33.85795754      37.94115625      41.01518344 
H      33.61901501      34.31240980      42.52458446 
H      31.03532739      34.03657520      39.18645332 
H      30.43836128      29.98868262      40.22090265 
H      28.69597929      30.46428958      37.57728967 
H      18.15329851      32.19156200      45.03608750 
H      31.19037075      26.21911898      45.43236423 
