534
Properties=species:S:1:pos:R:3 pbc="F F F"
N      27.48900000      32.93200000      46.12600000 
C      26.84400000      33.91000000      45.30300000 
C      26.19000000      33.18400000      44.13600000 
O      26.74900000      32.20700000      43.61800000 
C      27.86600000      34.97300000      44.78500000 
O      27.21400000      35.84400000      43.83900000 
C      29.09800000      34.39600000      44.12300000 
H      27.76300000      32.08000000      45.70500000 
H      26.10100000      34.42700000      45.86900000 
H      28.16400000      35.55200000      45.66000000 
H      26.66300000      36.49700000      44.25300000 
H      29.79100000      35.17600000      43.90200000 
H      29.59200000      33.68000000      44.77900000 
H      28.83400000      33.88300000      43.19900000 
N      25.01200000      33.67000000      43.73100000 
C      24.34000000      33.21300000      42.52700000 
C      24.77400000      34.09000000      41.33200000 
O      25.47400000      33.59900000      40.43300000 
C      22.84100000      33.23600000      42.72200000 
O      22.49900000      34.54300000      43.26300000 
H      24.58700000      34.42400000      44.21900000 
H      24.65300000      32.21600000      42.29700000 
H      22.32900000      33.09500000      41.78500000 
H      22.55100000      32.47100000      43.41600000 
H      21.60300000      34.66100000      43.47100000 
N      23.70800000      10.66600000      40.76100000 
C      22.94200000      11.22800000      41.87400000 
C      23.79000000      11.27800000      43.13000000 
O      24.23600000      10.22600000      43.61700000 
C      21.67000000      10.38200000      42.04800000 
C      20.60200000      11.02300000      42.92700000 
S      19.07200000       9.92700000      43.08000000 
C      18.54500000       9.72100000      41.28600000 
H      23.81800000       9.65500000      40.79200000 
H      22.67200000      12.24600000      41.57600000 
H      21.26500000      10.22600000      41.04700000 
H      21.94300000       9.41700000      42.43800000 
H      20.92100000      11.17100000      43.92900000 
H      20.26600000      11.96700000      42.51200000 
H      17.48000000       9.49500000      41.30100000 
H      18.70900000      10.63800000      40.75900000 
H      19.08300000       8.92000000      40.83200000 
N      24.02600000      13.17700000      46.98700000 
C      23.44800000      14.03800000      47.99000000 
C      23.85700000      13.56700000      49.37200000 
O      24.10700000      12.35900000      49.58400000 
C      21.91700000      14.26700000      47.78000000 
C      20.90000000      13.63700000      48.71600000 
C      20.50100000      14.29900000      49.86900000 
C      20.19700000      12.48100000      48.35000000 
C      19.45300000      13.85200000      50.64300000 
C      19.14200000      12.01700000      49.13300000 
C      18.76100000      12.72400000      50.26100000 
O      17.69000000      12.33800000      51.04400000 
H      24.22500000      12.20600000      47.24000000 
H      23.91600000      15.00300000      47.84600000 
H      21.75900000      15.31300000      47.81300000 
H      21.71300000      13.95300000      46.78400000 
H      21.01100000      15.21400000      50.15400000 
H      20.46200000      11.95400000      47.46700000 
H      19.14500000      14.38900000      51.52500000 
H      18.59700000      11.14100000      48.83000000 
H      17.15900000      11.63600000      50.68700000 
N      23.93000000      14.50100000      50.30600000 
C      24.21400000      14.21400000      51.72300000 
C      23.43800000      15.19000000      52.55200000 
O      23.07300000      16.29800000      52.09000000 
C      25.72500000      14.22400000      52.02600000 
C      26.37800000      15.60300000      52.09700000 
C      27.75300000      15.72200000      51.43600000 
O      28.28200000      16.88800000      51.51800000 
O      28.26400000      14.74200000      50.88400000 
H      23.70700000      15.43800000      50.09600000 
H      23.84000000      13.22200000      51.92400000 
H      25.88200000      13.69200000      52.97100000 
H      26.21000000      13.63400000      51.27400000 
H      25.75100000      16.34200000      51.63900000 
H      26.48800000      15.92500000      53.12900000 
N      23.17600000      14.83600000      53.82400000 
C      22.39200000      15.69300000      54.72300000 
C      23.09400000      15.67800000      56.06400000 
O      23.39100000      14.58900000      56.58100000 
C      20.93700000      15.18900000      54.82900000 
C      19.96300000      16.26500000      55.31700000 
C      18.84200000      15.69000000      56.17400000 
C      17.78400000      16.73000000      56.49700000 
N      16.87300000      16.23400000      57.59100000 
H      23.45300000      13.95400000      54.15200000 
H      22.39500000      16.68900000      54.29800000 
H      20.63400000      14.83700000      53.85000000 
H      20.92200000      14.31700000      55.47400000 
H      20.49100000      17.01300000      55.90200000 
H      19.54800000      16.78000000      54.46200000 
H      18.37400000      14.83800000      55.67400000 
H      19.27400000      15.30200000      57.11100000 
H      18.22300000      17.64600000      56.87000000 
H      17.16800000      16.95700000      55.64700000 
H      16.16700000      16.93000000      57.82000000 
H      16.36600000      15.40100000      57.30400000 
H      17.36400000      16.02400000      58.42000000 
N      21.21300000      23.32800000      60.11000000 
C      20.96500000      22.24800000      59.15700000 
C      21.52500000      22.64000000      57.79600000 
O      21.35500000      23.77600000      57.35900000 
C      19.46700000      21.84000000      59.12800000 
C      18.61500000      22.42700000      57.98300000 
C      17.20700000      21.92300000      57.89700000 
O      16.69700000      21.67300000      56.81000000 
N      16.52800000      21.76100000      59.04200000 
H      21.10900000      24.27500000      59.79500000 
H      21.50400000      21.40500000      59.53400000 
H      19.40200000      20.75900000      59.06200000 
H      19.05000000      22.11400000      60.07900000 
H      18.58800000      23.51100000      58.05700000 
H      19.06800000      22.20000000      57.03400000 
H      16.88600000      21.96400000      59.93200000 
H      15.58000000      21.44300000      59.00200000 
N      22.18800000      21.67500000      57.13600000 
C      22.78400000      21.85600000      55.81500000 
C      22.33100000      20.71800000      54.91400000 
O      22.44000000      19.52000000      55.30100000 
C      24.34000000      21.86700000      55.91300000 
C      24.82200000      23.04000000      56.80200000 
C      24.98100000      21.93300000      54.51100000 
C      26.34100000      23.09000000      56.99300000 
H      22.40600000      20.80300000      57.60200000 
H      22.43500000      22.79300000      55.42200000 
H      24.63200000      20.94200000      56.38100000 
H      24.46500000      23.96800000      56.37700000 
H      24.35700000      22.93000000      57.77400000 
H      26.05700000      21.91000000      54.58300000 
H      24.68300000      21.07400000      53.89200000 
H      24.68700000      22.83900000      53.98200000 
H      26.58900000      23.83200000      57.74300000 
H      26.73700000      22.14100000      57.30700000 
H      26.84800000      23.38600000      56.07400000 
N      21.86600000      21.04200000      53.72300000 
C      21.38800000      20.03800000      52.76500000 
C      22.16500000      20.25900000      51.44700000 
O      22.22400000      21.37800000      50.93600000 
C      19.84800000      20.16300000      52.52100000 
C      19.34500000      18.99800000      51.67800000 
C      19.11200000      20.23200000      53.86200000 
H      21.73300000      22.00000000      53.47300000 
H      21.60800000      19.08100000      53.16100000 
H      19.67700000      21.08800000      51.98100000 
H      18.28500000      19.05400000      51.56400000 
H      19.79400000      18.96700000      50.68800000 
H      19.57700000      18.03100000      52.17700000 
H      18.03700000      20.22000000      53.67700000 
H      19.34700000      19.38000000      54.48800000 
H      19.33900000      21.13200000      54.40700000 
N      22.78300000      19.16900000      50.93900000 
C      23.68000000      19.27400000      49.79400000 
C      23.20800000      18.30500000      48.71400000 
O      23.11600000      17.07200000      48.99800000 
C      25.13300000      18.87400000      50.24000000 
C      26.21000000      19.63500000      49.55800000 
O      26.94800000      20.44700000      50.19600000 
N      26.40100000      19.46900000      48.21400000 
H      22.73100000      18.29500000      51.39700000 
H      23.65200000      20.28300000      49.41600000 
H      25.21400000      19.10400000      51.28800000 
H      25.28000000      17.83600000      50.10000000 
H      27.09200000      19.96700000      47.75400000 
H      25.86900000      18.80400000      47.70700000 
N      22.93000000      18.73700000      47.50800000 
C      22.38800000      17.86200000      46.47800000 
C      22.93300000      18.26200000      45.12200000 
O      22.87900000      19.46600000      44.75400000 
C      20.84500000      17.92800000      46.58500000 
C      20.05200000      17.07700000      45.62300000 
C      20.12500000      17.27500000      44.23700000 
C      19.17500000      16.09000000      46.08800000 
C      19.40900000      16.46800000      43.37000000 
C      18.43800000      15.32000000      45.23000000 
C      18.56000000      15.49100000      43.85100000 
H      22.87200000      19.74100000      47.32500000 
H      22.73700000      16.85000000      46.70100000 
H      20.61100000      17.59900000      47.60500000 
H      20.56300000      18.94500000      46.51700000 
H      20.74300000      18.05400000      43.83700000 
H      19.08800000      15.94300000      47.15600000 
H      19.53300000      16.62000000      42.30700000 
H      17.75600000      14.56700000      45.61900000 
H      18.01000000      14.87300000      43.17700000 
N      23.41800000      17.31500000      44.33300000 
C      23.99800000      17.58700000      43.02200000 
C      23.62200000      16.47000000      42.05500000 
O      23.66900000      15.27000000      42.43200000 
C      25.52600000      17.71300000      43.18200000 
C      26.31600000      18.16900000      41.93300000 
C      27.67800000      18.76300000      42.30300000 
C      28.61000000      17.74700000      42.96300000 
N      29.86900000      18.41500000      43.44900000 
H      23.53400000      16.38600000      44.68500000 
H      23.59000000      18.51900000      42.66200000 
H      25.68100000      18.44600000      43.96500000 
H      25.90600000      16.77900000      43.54800000 
H      26.43700000      17.35300000      41.24900000 
H      25.75200000      18.93100000      41.41200000 
H      28.15200000      19.15800000      41.43200000 
H      27.52800000      19.58500000      42.98500000 
H      28.17500000      17.27700000      43.82000000 
H      28.91700000      16.98600000      42.26700000 
H      30.49500000      17.76600000      43.86400000 
H      30.35600000      18.88200000      42.69800000 
H      29.65500000      19.12200000      44.14400000 
N      23.30400000      16.81300000      40.80800000 
C      23.08100000      15.81600000      39.77300000 
C      23.74100000      16.25100000      38.48800000 
O      23.70500000      17.47500000      38.13000000 
C      21.59100000      15.50000000      39.49800000 
C      21.18600000      14.14500000      40.10800000 
C      19.84300000      13.63000000      39.65900000 
O      19.73100000      12.56700000      39.03600000 
N      18.79200000      14.38000000      39.97900000 
H      23.20300000      17.77500000      40.55900000 
H      23.56600000      14.91000000      40.10100000 
H      20.98500000      16.30500000      39.90000000 
H      21.40600000      15.47800000      38.43800000 
H      21.90600000      13.41300000      39.79600000 
H      21.20100000      14.20300000      41.18500000 
H      18.85600000      15.22900000      40.46100000 
H      17.87200000      14.10300000      39.66000000 
N      22.35400000      20.27900000      37.82700000 
C      21.73000000      21.17100000      38.78200000 
C      22.36600000      20.92200000      40.14000000 
O      22.83000000      19.81300000      40.45300000 
C      20.19600000      21.02300000      38.84800000 
C      19.64100000      19.60500000      38.90600000 
C      18.13300000      19.68700000      39.17700000 
N      17.33500000      18.55800000      38.67300000 
C      16.87900000      17.54500000      39.36100000 
N      15.95000000      16.72100000      38.84600000 
N      17.31900000      17.26900000      40.60100000 
H      22.66100000      19.40600000      38.13400000 
H      21.93700000      22.18500000      38.49300000 
H      19.81900000      21.60500000      39.66200000 
H      19.79800000      21.48500000      37.92300000 
H      19.78500000      19.11000000      37.94800000 
H      20.12100000      18.99800000      39.65700000 
H      17.95300000      19.79900000      40.23900000 
H      17.70700000      20.57600000      38.70600000 
H      17.01200000      18.65200000      37.73100000 
H      15.59300000      16.85600000      37.92600000 
H      15.64700000      15.92300000      39.31300000 
H      18.05600000      17.81400000      41.00500000 
H      16.89900000      16.58200000      41.16100000 
N      22.39600000      21.96700000      40.96500000 
C      23.00700000      21.92800000      42.27800000 
C      22.07400000      22.67800000      43.23300000 
O      21.73500000      23.86000000      42.96500000 
C      24.43500000      22.51600000      42.24300000 
C      25.22000000      22.19400000      43.51000000 
C      26.67100000      22.62100000      43.47700000 
O      27.48600000      22.05900000      44.28000000 
N      27.04800000      23.57200000      42.65300000 
H      22.05200000      22.86300000      40.66000000 
H      23.05800000      20.89000000      42.58100000 
H      24.91600000      22.09600000      41.38900000 
H      24.34700000      23.58200000      42.09200000 
H      24.78000000      22.67200000      44.38500000 
H      25.20700000      21.11800000      43.70100000 
H      26.44300000      24.03200000      42.03900000 
H      28.02100000      23.86800000      42.66800000 
N      21.66300000      22.00800000      44.27900000 
C      20.66200000      22.42300000      45.23500000 
C      21.34300000      22.58800000      46.57700000 
O      21.86100000      21.60700000      47.14000000 
C      19.55900000      21.33700000      45.28700000 
C      18.55500000      21.56900000      46.42700000 
C      18.81300000      21.20600000      43.95100000 
H      22.03200000      21.06800000      44.43200000 
H      20.24800000      23.37000000      44.89900000 
H      20.07600000      20.41700000      45.48600000 
H      17.79700000      20.80000000      46.41000000 
H      19.03700000      21.52500000      47.41200000 
H      18.06400000      22.52700000      46.34200000 
H      18.27900000      20.25500000      43.94200000 
H      18.10800000      21.98900000      43.81500000 
H      19.50000000      21.19000000      43.11900000 
N      21.36500000      23.78700000      47.12100000 
C      21.86700000      24.08400000      48.44500000 
C      20.75500000      24.70400000      49.28200000 
O      19.99500000      25.54200000      48.77800000 
C      23.04000000      25.10100000      48.45200000 
C      24.36700000      24.56100000      47.94600000 
C      25.12800000      23.71600000      48.75200000 
C      24.87300000      24.92900000      46.71500000 
C      26.33600000      23.24500000      48.34300000 
C      26.11300000      24.47200000      46.30400000 
C      26.85200000      23.60200000      47.10600000 
O      28.08000000      23.12100000      46.71600000 
H      20.95200000      24.58000000      46.61900000 
H      22.19800000      23.15000000      48.89300000 
H      22.74000000      25.95500000      47.82400000 
H      23.16400000      25.47400000      49.44500000 
H      24.75000000      23.42200000      49.73300000 
H      24.32300000      25.57600000      46.08500000 
H      26.92600000      22.56900000      48.95900000 
H      26.51900000      24.79000000      45.34600000 
H      28.08300000      22.79100000      45.80100000 
N      20.71200000      24.35300000      50.57600000 
C      19.85400000      25.04700000      51.52500000 
C      20.59000000      24.99300000      52.87300000 
O      21.05200000      23.92200000      53.28600000 
C      18.47400000      24.33800000      51.64100000 
C      17.50900000      24.89700000      52.70000000 
C      17.05100000      26.33800000      52.35500000 
C      16.28200000      23.98300000      52.79300000 
H      21.25600000      23.58900000      50.89400000 
H      19.73500000      26.05100000      51.20500000 
H      18.02400000      24.39000000      50.65900000 
H      18.67100000      23.28500000      51.86800000 
H      17.98800000      24.92400000      53.65500000 
H      16.33300000      26.68500000      53.09100000 
H      17.86500000      27.03000000      52.33000000 
H      16.55700000      26.35800000      51.37200000 
H      15.61400000      24.30400000      53.56800000 
H      15.73600000      23.96900000      51.85500000 
H      16.58400000      22.95800000      53.01500000 
N      19.98900000      30.18400000      50.16900000 
C      19.92300000      29.10900000      49.18700000 
C      20.37000000      29.66200000      47.86200000 
O      20.10100000      30.82900000      47.54600000 
C      18.49600000      28.57500000      49.04200000 
H      19.81600000      31.09000000      49.82000000 
H      20.58800000      28.30000000      49.50600000 
H      18.44600000      27.79100000      48.29700000 
H      18.15500000      28.16400000      49.98200000 
H      17.82900000      29.38100000      48.75400000 
N      20.97400000      28.81400000      47.00500000 
C      21.13800000      29.06200000      45.61200000 
C      20.66600000      27.81700000      44.87000000 
O      20.82700000      26.67000000      45.37800000 
C      22.57500000      29.47100000      45.15000000 
C      22.97100000      30.78100000      45.86000000 
C      23.61000000      28.37400000      45.39400000 
H      21.15400000      27.87500000      47.32900000 
H      20.46900000      29.87900000      45.34300000 
H      22.49800000      29.66600000      44.09600000 
H      23.92400000      31.11400000      45.45900000 
H      22.25100000      31.55400000      45.70400000 
H      23.09500000      30.62400000      46.91900000 
H      24.60200000      28.76800000      45.06200000 
H      23.70400000      28.13400000      46.43100000 
H      23.42200000      27.49400000      44.82400000 
N      20.07600000      28.00300000      43.68500000 
C      19.72000000      26.89000000      42.79900000 
C      20.43200000      27.18300000      41.49500000 
O      20.14100000      28.15100000      40.78700000 
C      18.19100000      26.69900000      42.68400000 
C      17.87400000      25.40500000      41.84900000 
C      17.38900000      27.90900000      42.16100000 
C      17.10300000      24.37900000      42.67400000 
H      19.92800000      28.91000000      43.36600000 
H      20.11900000      26.00000000      43.23300000 
H      17.87400000      26.51700000      43.70000000 
H      17.30000000      25.68100000      40.96600000 
H      18.78900000      24.96400000      41.49200000 
H      16.34700000      27.69500000      42.25700000 
H      17.60200000      28.79200000      42.73900000 
H      17.60700000      28.11300000      41.12900000 
H      16.93300000      23.48100000      42.08500000 
H      17.68800000      24.10000000      43.55500000 
H      16.15100000      24.76400000      43.00400000 
N      21.46000000      26.36300000      41.18800000 
C      22.28900000      26.67400000      40.03200000 
C      21.63500000      26.19000000      38.73300000 
O      21.95400000      26.70600000      37.67800000 
C      23.71200000      26.06800000      40.23800000 
C      24.81800000      26.58500000      39.31500000 
C      24.96600000      28.11100000      39.31800000 
C      26.16600000      25.94100000      39.71900000 
H      21.68000000      25.58500000      41.77600000 
H      22.36000000      27.73000000      39.94100000 
H      23.98600000      26.32100000      41.27200000 
H      23.66300000      24.99200000      40.17800000 
H      24.59500000      26.26600000      38.28400000 
H      25.79700000      28.41400000      38.68700000 
H      24.08000000      28.61700000      38.94700000 
H      25.17300000      28.47800000      40.32500000 
H      26.94800000      26.23100000      39.04200000 
H      26.44200000      26.27100000      40.73300000 
H      26.08800000      24.86000000      39.72500000 
N      20.73300000      25.21200000      38.81000000 
C      20.13900000      24.61900000      37.62100000 
C      19.11400000      25.44800000      36.88800000 
O      19.03200000      25.36500000      35.65400000 
H      20.49900000      24.80800000      39.69000000 
H      20.91600000      24.35500000      36.91000000 
H      19.64300000      23.71000000      37.92600000 
N      11.98100000      25.34700000      47.01700000 
C      13.38600000      25.23300000      47.39500000 
C      13.95000000      26.54100000      47.89600000 
O      14.71100000      26.58400000      48.88300000 
C      14.20000000      24.68400000      46.20700000 
C      15.70700000      24.68400000      46.50000000 
C      13.71400000      23.25800000      45.84600000 
H      11.79600000      25.42700000      46.04500000 
H      13.46700000      24.55600000      48.23600000 
H      14.02100000      25.32900000      45.36600000 
H      16.22900000      24.17500000      45.69700000 
H      16.11600000      25.69500000      46.55400000 
H      15.94200000      24.17700000      47.41900000 
H      14.32600000      22.88600000      45.04900000 
H      13.83500000      22.58800000      46.70900000 
H      12.68900000      23.26800000      45.52800000 
N      11.15100000      19.59100000      50.16700000 
C      12.19300000      20.29500000      49.47900000 
C      12.88400000      19.29200000      48.55900000 
O      12.70200000      19.34600000      47.30400000 
C      13.12000000      21.03200000      50.44800000 
C      14.02900000      22.04900000      49.79200000 
S      15.42300000      21.34100000      48.73600000 
C      16.81400000      21.19300000      49.97500000 
H      11.41100000      18.99100000      50.94600000 
H      11.71600000      21.02700000      48.82200000 
H      12.47800000      21.56500000      51.14500000 
H      13.69700000      20.32500000      51.05000000 
H      13.45900000      22.68700000      49.12800000 
H      14.50400000      22.68300000      50.53700000 
H      17.56500000      20.58700000      49.52000000 
H      17.19700000      22.17500000      50.19100000 
H      16.45000000      20.72700000      50.87600000 
N      13.60600000      18.33600000      49.14700000 
C      14.31200000      17.35400000      48.30200000 
C      13.35000000      16.49400000      47.53400000 
O      13.64700000      16.16200000      46.35100000 
C      15.33100000      16.52000000      49.11900000 
C      16.61300000      17.32200000      49.33800000 
C      14.79000000      15.96900000      50.45900000 
H      13.76300000      18.34200000      50.09900000 
H      14.86800000      17.89700000      47.54600000 
H      15.57900000      15.66600000      48.48800000 
H      17.34200000      16.74300000      49.90400000 
H      17.07600000      17.60000000      48.39100000 
H      16.41800000      18.23100000      49.89100000 
H      15.53300000      15.28700000      50.87400000 
H      14.67100000      16.77200000      51.18800000 
H      13.88200000      15.45100000      50.35700000 
N      12.21700000      16.07300000      48.11000000 
C      11.33600000      15.09500000      47.47200000 
C      10.59700000      15.67900000      46.26700000 
O      10.32300000      14.97500000      45.33400000 
C      10.43900000      14.45700000      48.52300000 
C       9.63100000      13.26700000      47.99400000 
C       8.33800000      13.59700000      47.24800000 
O       7.78500000      14.66900000      47.49000000 
O       7.91100000      12.68300000      46.46000000 
H      12.00100000      16.38300000      49.03600000 
H      11.96900000      14.32400000      47.04100000 
H      11.06800000      14.14500000      49.32700000 
H       9.73200000      15.21300000      48.91800000 
H      10.25200000      12.64700000      47.36900000 
H       9.35800000      12.64300000      48.83400000 
N      11.76100000      17.93200000      44.06700000 
C      12.61600000      18.00700000      42.89700000 
C      13.00200000      16.63500000      42.38500000 
O      13.07000000      16.44400000      41.15400000 
C      13.87300000      18.90500000      43.14300000 
C      14.02900000      20.02600000      42.06700000 
C      13.67400000      21.39600000      42.64700000 
C      15.46400000      20.06300000      41.50100000 
H      12.12200000      18.18800000      44.96600000 
H      12.04100000      18.43100000      42.09800000 
H      13.80800000      19.34500000      44.11500000 
H      14.76800000      18.27700000      43.14600000 
H      13.37600000      19.81400000      41.24500000 
H      13.67700000      22.15300000      41.87500000 
H      12.69600000      21.39600000      43.11700000 
H      14.41500000      21.68000000      43.39000000 
H      15.57900000      20.86800000      40.80100000 
H      16.18800000      20.18400000      42.30800000 
H      15.67400000      19.11700000      41.01700000 
N      13.25400000      15.64000000      43.25800000 
C      13.67200000      14.32000000      42.80100000 
C      12.48000000      13.39500000      42.63200000 
O      12.36900000      12.25600000      43.12400000 
C      14.84100000      13.73900000      43.63500000 
C      15.54700000      12.58800000      42.90300000 
C      14.48600000      13.30800000      45.06600000 
C      15.92400000      12.90100000      41.45100000 
H      13.18700000      15.81300000      44.24700000 
H      14.05600000      14.46800000      41.81100000 
H      15.54700000      14.56900000      43.70000000 
H      16.47500000      12.37700000      43.47100000 
H      14.94500000      11.68600000      42.95100000 
H      15.40400000      13.09600000      45.61200000 
H      13.97500000      14.10500000      45.60800000 
H      13.86700000      12.43100000      45.07800000 
H      16.69200000      12.20900000      41.09400000 
H      15.07300000      12.78500000      40.78000000 
H      16.30200000      13.89300000      41.34800000 
N      28.16500000      22.82000000      35.33500000 
C      28.65700000      22.49300000      36.68300000 
C      30.19200000      22.42100000      36.58300000 
O      30.83700000      23.49300000      36.59600000 
C      27.98200000      21.23700000      37.28900000 
C      26.45100000      21.30200000      37.21700000 
C      28.45100000      21.01600000      38.74700000 
C      25.76500000      22.36800000      38.08900000 
H      28.27600000      22.14300000      34.63700000 
H      28.45800000      23.32900000      37.31900000 
H      28.26700000      20.36600000      36.69200000 
H      26.15800000      21.45600000      36.18200000 
H      26.06800000      20.32100000      37.48900000 
H      27.93200000      20.15400000      39.16100000 
H      29.52400000      20.80300000      38.79400000 
H      28.24800000      21.86700000      39.34600000 
H      24.69900000      22.36900000      37.89400000 
H      25.91600000      22.16600000      39.13800000 
H      26.14300000      23.35300000      37.86400000 
H      28.24631815      33.27864352      46.46703885 
H      24.49078439      35.04794929      41.28593401 
H      23.29636816      10.86030889      39.98459592 
H      23.98900425      12.15651706      43.56428687 
H      23.47067654      13.12350265      46.28077490 
H      23.31332251      16.53882697      56.52321080 
H      20.64527982      23.25232552      60.80423855 
H      24.20868452      15.57907790      37.91372490 
H      21.77435116      20.09652274      37.16314062 
H      20.69632652      25.82448319      53.41828008 
H      19.37767026      30.03999856      50.81362356 
H      18.50749425      26.05836161      37.39751886 
H      11.53458164      24.61712415      47.29627027 
H      13.71500908      27.39635879      47.43432847 
H      10.56727223      20.18192086      50.51351758 
H      10.34270814      16.64607601      46.25701791 
H      11.05044257      18.47289451      43.95501221 
H      11.69443207      13.68638392      42.08612599 
H      27.28056326      22.98306889      35.36935400 
H      30.64723710      21.53361795      36.51011461 
