337
Properties=species:S:1:pos:R:3 pbc="F F F"
N      18.33100000      27.13200000      88.44100000 
C      19.01500000      27.38600000      89.70600000 
C      18.04200000      28.05000000      90.67900000 
O      17.58100000      29.20300000      90.44900000 
C      20.29100000      28.25600000      89.51100000 
C      20.93900000      28.64800000      90.84400000 
C      21.30400000      27.46800000      88.64000000 
H      17.89500000      27.92400000      88.00200000 
H      19.30500000      26.43000000      90.10800000 
H      19.99200000      29.14000000      88.96800000 
H      21.84300000      29.20600000      90.64700000 
H      20.27500000      29.29800000      91.42800000 
H      21.18600000      27.78600000      91.43300000 
H      22.18600000      28.10000000      88.47200000 
H      21.64100000      26.57300000      89.16400000 
H      20.90500000      27.19700000      87.69600000 
N      17.72000000      27.32400000      91.76000000 
C      16.77100000      27.81200000      92.78200000 
C      17.50900000      27.84800000      94.11200000 
O      18.15400000      26.84000000      94.52100000 
C      15.56800000      26.83000000      92.89300000 
C      14.64300000      26.93700000      91.69500000 
C      13.59400000      25.82200000      91.68400000 
C      12.53500000      26.07300000      90.61900000 
N      11.57500000      24.90100000      90.54600000 
H      18.09600000      26.44800000      91.88000000 
H      16.44400000      28.77600000      92.51500000 
H      15.96200000      25.81800000      92.97600000 
H      15.03400000      27.04900000      93.79600000 
H      14.14600000      27.91500000      91.70500000 
H      15.19800000      26.88900000      90.76100000 
H      14.06600000      24.87500000      91.51500000 
H      13.09500000      25.77100000      92.67100000 
H      11.92100000      26.94200000      90.83800000 
H      12.95900000      26.17200000      89.64300000 
H      10.85800000      25.05700000      89.85300000 
H      12.04500000      24.05900000      90.29100000 
H      11.11200000      24.73800000      91.42300000 
N      16.13700000      33.73900000      95.47400000 
C      16.81800000      33.99000000      94.18300000 
C      16.43200000      32.87800000      93.22900000 
O      16.74700000      31.67800000      93.45600000 
C      18.35700000      34.02100000      94.42600000 
C      19.16400000      34.89400000      93.47700000 
C      19.51000000      36.18600000      93.88400000 
C      19.60400000      34.41200000      92.24500000 
C      20.30500000      36.98300000      93.03900000 
C      20.39800000      35.23400000      91.42700000 
C      20.75000000      36.50100000      91.82700000 
H      16.13700000      32.80200000      95.82200000 
H      16.48500000      34.93200000      93.81300000 
H      18.50700000      34.39200000      95.43100000 
H      18.73800000      33.00600000      94.40900000 
H      19.18800000      36.55900000      94.82500000 
H      19.36300000      33.41400000      91.93200000 
H      20.58100000      37.97500000      93.38100000 
H      20.74200000      34.83600000      90.47600000 
H      21.36900000      37.11900000      91.19500000 
N      15.73500000      33.22300000      92.11500000 
C      15.26100000      32.26300000      91.14000000 
C      15.79600000      32.66100000      89.79000000 
O      15.49500000      33.78800000      89.31400000 
C      13.72000000      32.25100000      91.15000000 
C      13.11200000      31.30200000      90.16100000 
O      13.61200000      30.16600000      89.99300000 
N      12.05800000      31.70900000      89.47200000 
H      15.50200000      34.19300000      91.98300000 
H      15.63100000      31.27900000      91.42600000 
H      13.39400000      31.94700000      92.13400000 
H      13.35700000      33.26300000      90.98900000 
H      11.61400000      31.09300000      88.84700000 
H      11.70200000      32.65500000      89.51600000 
N      16.56700000      31.78800000      89.11900000 
C      17.11600000      32.13000000      87.81600000 
C      17.01100000      30.91600000      86.91700000 
O      17.36200000      29.78800000      87.30900000 
C      18.58100000      32.57100000      87.94200000 
H      16.81800000      30.91600000      89.53300000 
H      16.54200000      32.93000000      87.41200000 
H      18.99200000      32.82200000      86.95700000 
H      18.63700000      33.45200000      88.56900000 
H      19.18900000      31.78500000      88.38100000 
N      16.55800000      31.13800000      85.66700000 
C      16.49700000      30.06300000      84.67900000 
C      17.10200000      30.56400000      83.38900000 
O      16.88100000      31.69100000      82.94500000 
C      15.06200000      29.47900000      84.47800000 
C      14.54800000      28.85100000      85.76800000 
C      14.03500000      30.50000000      83.95300000 
H      16.32000000      32.05600000      85.37900000 
H      17.10200000      29.25900000      85.06400000 
H      15.17200000      28.70200000      83.73700000 
H      13.59100000      28.35500000      85.58100000 
H      15.24300000      28.10500000      86.16900000 
H      14.38000000      29.60400000      86.53800000 
H      13.09700000      30.01600000      83.80200000 
H      13.89000000      31.29400000      84.68700000 
H      14.34900000      30.95700000      83.01500000 
N      17.92600000      29.66000000      82.78600000 
C      18.52700000      29.88600000      81.46800000 
C      17.99400000      28.86100000      80.49100000 
O      17.79600000      27.67700000      80.85200000 
C      20.06700000      29.66700000      81.51100000 
C      20.90400000      30.82900000      81.94500000 
N      21.01400000      31.25000000      83.25700000 
C      21.71500000      31.56700000      81.14800000 
C      21.88200000      32.23500000      83.23500000 
N      22.33600000      32.46500000      82.02100000 
H      18.09500000      28.80600000      83.20500000 
H      18.29700000      30.87900000      81.13900000 
H      20.25200000      28.82000000      82.16700000 
H      20.38600000      29.36900000      80.52800000 
H      21.91900000      31.53800000      80.12400000 
H      22.20500000      32.78400000      84.09800000 
H      23.00400000      33.16000000      81.73700000 
N      17.67000000      32.36900000      73.07800000 
C      18.17400000      32.50600000      74.43800000 
C      17.12800000      33.19100000      75.28900000 
O      16.53200000      34.20700000      74.84400000 
C      19.46700000      33.32800000      74.43800000 
C      20.27000000      33.34100000      75.73700000 
C      21.37600000      34.41300000      75.75800000 
C      22.40500000      34.22500000      74.63500000 
N      23.42300000      35.32600000      74.67400000 
H      17.33100000      33.22200000      72.63000000 
H      18.36100000      31.50800000      74.81700000 
H      20.08400000      32.92200000      73.63500000 
H      19.22900000      34.33300000      74.14900000 
H      19.62800000      33.52900000      76.57800000 
H      20.71200000      32.36000000      75.90900000 
H      20.91500000      35.38100000      75.64700000 
H      21.87500000      34.39900000      76.70300000 
H      22.93800000      33.29800000      74.75300000 
H      21.96800000      34.25500000      73.67100000 
H      24.13000000      35.19400000      73.97500000 
H      23.00300000      36.22000000      74.51700000 
H      23.90100000      35.36700000      75.57500000 
N      16.93400000      32.71200000      76.51100000 
C      16.12800000      33.35000000      77.54400000 
C      16.96300000      33.44200000      78.80200000 
O      17.68900000      32.46700000      79.14700000 
C      14.84000000      32.60700000      77.84700000 
O      14.02200000      32.63100000      76.67600000 
H      17.40100000      31.85900000      76.77700000 
H      15.86700000      34.36000000      77.18900000 
H      15.05900000      31.58300000      78.12600000 
H      14.32500000      33.09200000      78.67500000 
H      13.22800000      32.13400000      76.76000000 
N      16.86200000      34.56800000      79.54300000 
C      17.68600000      34.77600000      80.73700000 
C      16.82800000      35.51900000      81.76100000 
O      16.69700000      36.74700000      81.72000000 
C      18.94800000      35.56200000      80.38200000 
C      19.95800000      35.67400000      81.50100000 
O      19.58700000      35.29600000      82.67000000 
O      21.09000000      36.14200000      81.21100000 
H      16.32800000      35.32100000      79.18200000 
H      17.95200000      33.82200000      81.12500000 
H      19.42100000      35.09800000      79.53600000 
H      18.67500000      36.57100000      80.07300000 
N      16.17300000      34.74000000      82.64200000 
C      15.23000000      35.28800000      83.61000000 
C      15.87700000      35.26100000      85.00000000 
O      16.44100000      34.27300000      85.42400000 
C      13.93500000      34.45100000      83.66200000 
C      13.15500000      34.52300000      82.35100000 
C      11.79000000      33.84300000      82.43600000 
O      11.47400000      33.18400000      83.42100000 
O      11.02700000      34.04000000      81.40400000 
H      16.35500000      33.75200000      82.67200000 
H      14.99900000      36.30100000      83.32600000 
H      14.19000000      33.42200000      83.88700000 
H      13.32500000      34.81900000      84.47700000 
H      12.98500000      35.56100000      82.07100000 
H      13.70200000      34.06800000      81.53900000 
N      15.72500000      36.40100000      85.71800000 
C      16.31600000      36.56300000      87.04800000 
C      15.26100000      37.21600000      87.92500000 
O      14.77700000      38.33100000      87.57300000 
C      17.61200000      37.44700000      87.02500000 
C      18.36900000      37.32500000      88.35600000 
C      18.52500000      37.07100000      85.83400000 
H      15.25600000      37.17200000      85.32500000 
H      16.55700000      35.59700000      87.42300000 
H      17.29800000      38.47300000      86.88600000 
H      19.22600000      37.98500000      88.34200000 
H      17.74800000      37.59400000      89.19900000 
H      18.72400000      36.30500000      88.49800000 
H      19.43700000      37.66600000      85.90300000 
H      18.80700000      36.02800000      85.87000000 
H      18.06300000      37.28300000      84.89400000 
N      14.86800000      36.58500000      89.02900000 
C      13.88900000      37.16000000      89.94300000 
C      14.48400000      37.11500000      91.35900000 
O      14.95300000      36.06700000      91.80800000 
C      12.56200000      36.34800000      89.91600000 
C      11.86100000      36.46300000      88.56000000 
C      10.69600000      35.51300000      88.45100000 
O      10.76800000      34.33200000      88.88900000 
N       9.59300000      35.97700000      87.86700000 
H      15.19400000      35.66000000      89.21100000 
H      13.70000000      38.17200000      89.65700000 
H      12.76900000      35.32500000      90.15200000 
H      11.90800000      36.75000000      90.69800000 
H      11.56000000      37.46200000      88.36400000 
H      12.55700000      36.16900000      87.77400000 
H       9.47100000      36.93400000      87.59300000 
H       8.82100000      35.36600000      87.74400000 
N      14.47700000      38.27300000      92.03100000 
C      15.08500000      38.41500000      93.35700000 
C      14.10000000      39.10700000      94.26300000 
O      13.56400000      40.18000000      93.92300000 
C      16.38500000      39.22200000      93.23800000 
H      14.07700000      39.07900000      91.61900000 
H      15.29000000      37.42500000      93.71900000 
H      16.83600000      39.34300000      94.23800000 
H      17.09300000      38.68200000      92.62500000 
H      16.20200000      40.19200000      92.82100000 
N      11.02800000      43.74300000      95.56100000 
C      11.26900000      42.60000000      94.66800000 
C      11.38000000      43.12900000      93.24600000 
O      10.68200000      44.07700000      92.87200000 
C      10.18800000      41.49600000      94.81200000 
C       8.75700000      41.94200000      94.53200000 
C       7.77100000      40.85600000      94.77400000 
O       8.07300000      39.62700000      94.69400000 
N       6.50900000      41.22600000      95.06700000 
H      10.49100000      44.49000000      95.18400000 
H      12.20500000      42.16000000      94.95200000 
H      10.45100000      40.67400000      94.17500000 
H      10.26000000      41.14000000      95.84600000 
H       8.49600000      42.80400000      95.16800000 
H       8.64200000      42.26700000      93.52100000 
H       6.24100000      42.17200000      95.15400000 
H       5.79400000      40.52500000      95.20400000 
N      12.27300000      42.51900000      92.45700000 
C      12.53900000      42.92700000      91.08600000 
C      12.49600000      41.72800000      90.15600000 
O      12.66200000      40.55200000      90.59800000 
C      13.86700000      43.66400000      90.95200000 
O      14.90200000      42.68900000      91.22900000 
C      13.99500000      44.87200000      91.84100000 
H      12.80700000      41.75000000      92.81400000 
H      11.74800000      43.60700000      90.80100000 
H      13.97000000      43.97100000      89.91000000 
H      15.77300000      43.04000000      91.15800000 
H      14.95300000      45.36700000      91.67700000 
H      13.20700000      45.58700000      91.65300000 
H      13.95300000      44.57300000      92.89900000 
N      12.25800000      41.97200000      88.89600000 
C      12.14700000      40.95300000      87.84700000 
C      12.94900000      41.41000000      86.62400000 
O      13.10900000      42.59000000      86.36000000 
C      10.68400000      40.70400000      87.44400000 
C       9.81600000      40.28200000      88.64000000 
C       8.54400000      39.60800000      88.23200000 
O       8.55700000      38.68800000      87.39100000 
N       7.40600000      39.99600000      88.79700000 
H      12.12300000      42.92400000      88.58900000 
H      12.57800000      40.05100000      88.24100000 
H      10.26900000      41.59700000      86.98700000 
H      10.67300000      39.91600000      86.69800000 
H      10.36700000      39.56500000      89.24700000 
H       9.61600000      41.12400000      89.26600000 
H       7.39500000      40.76200000      89.46700000 
H       6.56500000      39.55200000      88.59000000 
N      13.41700000      40.40300000      85.86900000 
C      14.25800000      40.59600000      84.68500000 
C      13.82500000      39.59300000      83.64500000 
O      13.74800000      38.37100000      83.93000000 
C      15.76800000      40.36900000      85.04300000 
C      16.69700000      41.53800000      84.85000000 
C      17.08000000      42.44400000      85.76100000 
C      17.44800000      41.82200000      83.65500000 
N      18.01400000      43.28700000      85.26300000 
C      18.29700000      42.93300000      83.95300000 
C      17.53300000      41.25300000      82.38300000 
C      19.19900000      43.44700000      83.03100000 
C      18.41800000      41.74700000      81.46100000 
C      19.25700000      42.85800000      81.80200000 
H      13.40300000      39.48600000      86.22900000 
H      14.10200000      41.61500000      84.33300000 
H      15.78900000      40.06900000      86.08400000 
H      16.14500000      39.52900000      84.48200000 
H      16.74900000      42.54800000      86.80700000 
H      18.45800000      44.04300000      85.74900000 
H      16.90800000      40.41700000      82.13200000 
H      19.83200000      44.25800000      83.28400000 
H      18.48800000      41.33400000      80.49100000 
H      19.94300000      43.21300000      81.05800000 
N      13.58500000      40.07300000      82.41600000 
C      13.25600000      39.27200000      81.24400000 
C      14.25800000      39.59900000      80.14400000 
O      14.62800000      40.77400000      79.96100000 
C      11.82500000      39.62400000      80.70700000 
C      10.71000000      38.64100000      81.13500000 
C      10.56800000      37.47900000      80.14400000 
C       9.24200000      36.72200000      80.23700000 
N       9.12300000      35.91000000      81.50000000 
H      13.66200000      41.04400000      82.26200000 
H      13.31900000      38.22700000      81.50600000 
H      11.59700000      40.61900000      81.06500000 
H      11.84700000      39.68100000      79.63600000 
H      10.90600000      38.28300000      82.12900000 
H       9.79500000      39.18100000      81.16600000 
H      10.62100000      37.85800000      79.13700000 
H      11.38700000      36.76700000      80.24700000 
H       8.41600000      37.41300000      80.22100000 
H       9.12700000      36.04500000      79.43200000 
H       8.21100000      35.51000000      81.57600000 
H       9.81400000      35.15100000      81.49000000 
H       9.27500000      36.46700000      82.31700000 
N      14.63100000      38.59000000      79.34400000 
C      15.47200000      38.77900000      78.17800000 
C      15.15000000      37.65100000      77.22200000 
O      15.06900000      36.47400000      77.64500000 
C      16.95200000      38.82700000      78.53600000 
C      17.89100000      39.15600000      77.34900000 
C      19.14600000      39.80700000      77.81400000 
O      19.32500000      41.04800000      77.67200000 
N      20.06000000      39.05200000      78.39700000 
H      14.37900000      37.66000000      79.57700000 
H      15.19200000      39.73800000      77.72600000 
H      17.06300000      39.55400000      79.30100000 
H      17.22900000      37.87500000      78.97600000 
H      18.10900000      38.26300000      76.78400000 
H      17.39200000      39.85000000      76.68600000 
H      19.95500000      38.06000000      78.52100000 
H      20.90500000      39.45800000      78.76100000 
H      18.91933063      26.81038182      87.84064276 
H      17.48748617      28.67517984      94.67352530 
H      16.52535753      34.23171350      96.11929980 
H      17.79617310      29.12548852      79.54711953 
H      18.32401355      32.05489825      72.54545295 
H      13.86885957      38.70601721      95.14944622 
H      10.58465252      43.46416611      96.29291166 
H      15.00171302      37.84449938      76.25217065 
