542
Properties=species:S:1:pos:R:3 pbc="F F F"
N      19.84100000      31.13600000      29.26900000 
C      20.69900000      30.04700000      29.17100000 
C      20.04300000      28.54000000      28.47800000 
O      20.42700000      28.08800000      27.82100000 
C      21.00500000      29.34700000      30.56100000 
C      21.41300000      28.09300000      30.82400000 
C      22.17000000      27.98000000      32.12500000 
N      23.61300000      28.53900000      32.35400000 
C      23.60800000      29.20800000      33.36900000 
N      22.98800000      29.47000000      34.49000000 
N      25.37100000      29.95000000      33.56000000 
H      19.55400000      31.52700000      29.97400000 
H      21.53800000      30.01600000      28.67600000 
H      21.63300000      30.29800000      31.07700000 
H      20.05900000      29.54500000      31.24900000 
H      20.97300000      27.54200000      30.55200000 
H      22.54200000      28.08400000      30.01000000 
H      21.44200000      28.24300000      32.80700000 
H      22.32600000      26.66500000      32.23400000 
H      24.09100000      28.66200000      31.45700000 
H      21.93800000      29.27700000      34.31700000 
H      23.14100000      30.59700000      34.89600000 
H      25.73100000      29.19100000      33.41100000 
H      25.21300000      30.21200000      34.26600000 
N      18.79400000      28.56100000      28.72400000 
C      17.96500000      27.64000000      28.37100000 
C      17.93200000      27.91600000      26.61800000 
O      17.98700000      26.96100000      25.87700000 
C      16.43100000      27.66300000      28.83200000 
C      15.36800000      26.52200000      27.73900000 
C      15.60900000      25.49700000      27.84400000 
C      14.67200000      27.34400000      27.00600000 
C      14.81400000      24.83300000      27.09400000 
C      13.72000000      26.59000000      26.27300000 
C      13.99500000      25.11000000      26.37200000 
H      18.12800000      29.15200000      29.46800000 
H      18.41100000      26.52300000      28.22500000 
H      16.57300000      27.23500000      29.63200000 
H      16.10400000      28.58900000      28.71700000 
H      16.36000000      24.82600000      28.53600000 
H      14.55400000      28.25900000      27.06600000 
H      14.90300000      23.46300000      27.09000000 
H      13.15200000      26.99100000      25.66500000 
H      13.19500000      24.56600000      25.58300000 
N      19.76300000      29.35100000      24.75300000 
C      21.23200000      29.23300000      24.33900000 
C      21.55800000      27.57900000      24.27900000 
O      22.06200000      27.29200000      23.00900000 
C      22.51300000      29.57200000      25.32100000 
C      23.63500000      30.06600000      24.45300000 
C      23.60700000      30.61300000      23.24400000 
C      24.80300000      29.34500000      24.98700000 
C      24.85500000      30.55500000      22.69400000 
C      25.73200000      29.61100000      24.17600000 
C      25.67000000      30.04900000      23.10700000 
O      27.17800000      30.19800000      22.23900000 
H      19.77400000      29.81200000      25.69100000 
H      21.24700000      29.58900000      23.28000000 
H      21.90100000      30.87300000      25.46600000 
H      22.38000000      29.39000000      25.98700000 
H      22.81500000      31.05800000      22.90000000 
H      24.76000000      28.84900000      25.94100000 
H      24.83000000      31.35000000      21.40100000 
H      27.01200000      28.97600000      24.73300000 
H      27.98900000      30.53500000      22.60600000 
N      21.01200000      26.87800000      25.36800000 
C      21.46600000      25.45200000      24.94000000 
C      20.38000000      25.16200000      23.97700000 
O      21.06200000      24.09000000      22.76100000 
C      20.60500000      24.70000000      26.03400000 
C      19.98800000      23.27500000      25.77300000 
C      21.35400000      22.45700000      25.84100000 
C      19.05900000      23.33400000      25.53800000 
C      20.68600000      21.08800000      25.06300000 
C      18.37100000      21.74100000      24.61500000 
C      19.78900000      20.84600000      24.71800000 
O      19.16700000      19.95400000      24.00800000 
H      20.71900000      27.28800000      25.89900000 
H      22.10600000      25.18300000      24.85800000 
H      21.38000000      24.85400000      27.06000000 
H      19.67000000      25.35700000      26.62200000 
H      22.21600000      22.45100000      26.19000000 
H      18.13900000      23.87500000      25.48300000 
H      21.61700000      20.29500000      25.21700000 
H      17.66500000      21.78100000      24.34500000 
H      19.92700000      19.00500000      24.13700000 
N      22.41400000      25.95800000      20.85500000 
C      23.42600000      25.25000000      20.56300000 
C      23.26500000      23.56000000      19.89900000 
O      23.76100000      23.33800000      19.43200000 
C      24.36500000      25.07900000      21.80000000 
C      25.12000000      26.49700000      22.13900000 
C      25.40400000      25.94400000      23.48400000 
C      26.07300000      26.62600000      20.99500000 
H      22.01700000      26.34600000      21.65000000 
H      24.14600000      25.60300000      19.68800000 
H      23.59700000      24.85500000      22.71300000 
H      25.00200000      24.31900000      21.63900000 
H      24.37400000      27.11700000      22.22200000 
H      26.60500000      27.19700000      23.72300000 
H      25.16800000      25.94700000      24.13700000 
H      26.58000000      25.12400000      23.26600000 
H      26.65500000      27.60500000      21.33000000 
H      26.70800000      25.96500000      20.83500000 
H      25.54500000      27.02000000      20.04600000 
N      22.06200000      23.24200000      20.56800000 
C      21.66700000      21.94500000      20.18800000 
C      21.37500000      21.61900000      18.67200000 
O      21.46400000      21.02200000      18.12600000 
C      20.56900000      21.24600000      21.09800000 
C      20.41700000      19.92400000      20.94700000 
C      21.64000000      19.05900000      20.98400000 
C      21.61900000      17.69800000      20.26400000 
N      22.17400000      18.04200000      19.08300000 
H      21.49200000      23.75200000      21.28100000 
H      22.68300000      21.22100000      20.18600000 
H      21.00500000      21.43400000      22.16500000 
H      19.79500000      21.82500000      21.04000000 
H      19.59500000      19.53300000      21.45000000 
H      20.09600000      19.63800000      19.84600000 
H      22.45400000      19.53100000      21.20100000 
H      21.49900000      18.57600000      22.25400000 
H      22.44600000      17.05400000      20.87100000 
H      20.78000000      17.20300000      20.17600000 
H      22.07800000      17.43000000      18.56200000 
H      22.17000000      19.07500000      18.77300000 
H      23.51700000      18.19400000      19.06100000 
N      31.82400000      19.12100000      21.52300000 
C      31.60300000      18.29000000      22.72100000 
C      30.37600000      18.97100000      23.39400000 
O      30.13700000      20.00000000      23.40100000 
C      32.33600000      18.16800000      23.85900000 
O      32.68000000      18.80800000      24.75200000 
H      31.62500000      18.77500000      20.57300000 
H      31.05900000      17.37900000      22.15100000 
H      32.20300000      17.10500000      24.16300000 
H      33.59000000      17.56300000      22.98800000 
H      33.02200000      19.79500000      23.92300000 
N      29.38400000      18.44500000      24.01600000 
C      28.69000000      18.60000000      24.56000000 
C      28.82900000      19.19300000      26.22100000 
O      28.58100000      20.25200000      26.71800000 
C      27.26600000      17.71400000      24.88500000 
C      26.01900000      18.45600000      25.59600000 
C      27.77000000      16.44200000      25.71500000 
C      24.93300000      17.64700000      25.46500000 
H      29.44100000      17.29000000      23.86500000 
H      28.08600000      19.54300000      24.35600000 
H      27.11600000      17.46100000      24.01500000 
H      26.29100000      18.59800000      26.64200000 
H      25.95100000      19.28400000      25.17100000 
H      27.00800000      15.82200000      25.74300000 
H      28.65900000      16.05200000      25.31600000 
H      27.86300000      16.71500000      26.78000000 
H      23.96900000      18.14300000      25.76900000 
H      24.70200000      17.27100000      24.37500000 
H      24.91000000      16.58600000      26.10100000 
N      29.89800000      18.55600000      26.56900000 
C      30.40900000      18.68900000      28.19800000 
C      31.22500000      20.21100000      27.93100000 
O      31.08000000      21.00500000      28.68600000 
C      31.16200000      17.85100000      28.41800000 
C      30.62500000      16.53800000      28.64300000 
C      31.45000000      15.50400000      29.37800000 
N      31.09800000      14.12200000      29.44800000 
C      31.59900000      13.27400000      29.83300000 
N      32.79900000      12.71400000      30.10200000 
N      31.12900000      11.87600000      29.58500000 
H      30.33600000      17.70200000      26.27300000 
H      29.71300000      19.05600000      28.62000000 
H      32.18600000      17.68700000      27.85900000 
H      31.82500000      18.27700000      29.62900000 
H      29.69800000      16.63000000      29.34400000 
H      30.37700000      16.07000000      27.90000000 
H      32.73300000      15.41800000      28.84000000 
H      31.79500000      15.80900000      30.53200000 
H      29.87900000      14.09000000      29.12000000 
H      33.34200000      14.13600000      30.42000000 
H      33.31700000      12.38800000      30.36200000 
H      30.10000000      11.73000000      29.19500000 
H      31.37400000      11.05300000      29.80100000 
N      31.09100000      22.28500000      25.44900000 
C      29.87300000      23.51100000      25.18400000 
C      29.48600000      24.06400000      26.43400000 
O      29.17500000      25.17300000      26.78700000 
C      28.93800000      23.26900000      24.32800000 
C      29.13200000      23.23600000      22.90300000 
S      27.92700000      22.96300000      21.75300000 
C      27.04300000      21.45400000      22.36200000 
H      30.77900000      21.67700000      25.11600000 
H      30.52700000      24.33400000      24.90100000 
H      28.39700000      21.95200000      24.68100000 
H      27.96800000      23.81500000      24.37600000 
H      29.78600000      23.95900000      22.54300000 
H      29.96000000      22.12800000      22.59200000 
H      26.00400000      21.36500000      21.78400000 
H      27.43700000      20.81600000      22.51300000 
H      26.48500000      21.83800000      23.42500000 
N      29.03200000      23.02700000      27.24100000 
C      28.42300000      23.08600000      28.66500000 
C      29.20600000      24.60600000      29.40300000 
O      29.03200000      25.13400000      29.91900000 
C      27.89500000      22.31600000      29.46900000 
H      28.93300000      22.13600000      27.16700000 
H      27.35300000      24.13400000      28.43800000 
H      27.38700000      22.36400000      30.19500000 
H      27.45500000      21.47900000      28.68500000 
H      28.84400000      21.63400000      29.74900000 
N      30.18800000      27.52200000      27.73100000 
C      28.63500000      28.69400000      28.00600000 
C      28.65600000      29.08700000      29.50600000 
O      28.41600000      29.95000000      29.51200000 
C      27.57600000      27.63100000      27.49400000 
O      26.41400000      28.47000000      27.81500000 
H      29.94900000      26.73000000      27.79100000 
H      28.88700000      29.20200000      27.38200000 
H      27.70800000      27.34900000      26.41400000 
H      27.61300000      26.66200000      28.15100000 
H      26.32400000      29.24000000      27.28400000 
N      27.20500000      26.20000000      36.75500000 
C      25.86200000      26.07300000      36.37000000 
C      25.60000000      25.80600000      34.96100000 
O      24.89800000      24.92100000      34.57300000 
C      25.12200000      27.48600000      36.42400000 
C      24.73400000      27.93600000      37.82400000 
C      24.53300000      26.80300000      39.11200000 
C      24.62700000      28.88500000      38.73900000 
N      24.23000000      27.64800000      39.84500000 
C      24.20000000      28.97500000      39.91700000 
C      24.69200000      30.55300000      37.91800000 
C      24.14200000      29.90800000      40.64900000 
C      24.56400000      31.40300000      38.93600000 
C      24.27500000      31.13400000      40.03300000 
H      27.55400000      27.28600000      37.09500000 
H      25.44200000      25.56500000      36.78800000 
H      25.75500000      28.30800000      36.14200000 
H      24.17300000      27.51400000      35.90700000 
H      24.53900000      25.86800000      38.89600000 
H      23.94700000      27.05600000      41.05100000 
H      24.90300000      30.55600000      37.07000000 
H      23.88800000      29.81800000      41.61900000 
H      24.62100000      32.50500000      38.48200000 
H      24.12900000      32.18300000      40.92100000 
N      26.66800000      26.41100000      33.79300000 
C      26.42300000      26.17100000      32.49800000 
C      26.81200000      24.36700000      32.45200000 
O      26.12700000      23.82000000      31.72600000 
H      27.25500000      27.08000000      34.30100000 
H      25.53200000      26.12500000      32.31400000 
H      27.01400000      26.48100000      32.14400000 
N      27.79100000      24.15100000      33.13400000 
C      28.30500000      22.63100000      33.15200000 
C      26.91200000      21.92800000      33.86500000 
O      26.57500000      20.61400000      32.71500000 
C      29.42500000      22.45900000      33.89200000 
C      29.48600000      20.81300000      33.83700000 
C      30.53800000      23.23900000      33.20100000 
H      28.25800000      24.56800000      33.60700000 
H      28.30900000      22.34800000      31.91500000 
H      29.14200000      22.79800000      34.78900000 
H      30.63900000      20.69500000      34.50000000 
H      28.99100000      20.38100000      34.48000000 
H      29.71500000      20.39600000      32.96900000 
H      31.47000000      22.86100000      33.71100000 
H      30.75300000      22.61400000      32.10400000 
H      30.43700000      23.99400000      33.11200000 
N      26.38700000      21.99100000      34.51200000 
C      25.47900000      20.97600000      35.21500000 
C      24.34000000      21.61900000      34.32600000 
O      23.34200000      20.23700000      34.21700000 
C      25.38200000      21.90400000      36.74700000 
C      23.92400000      21.02600000      37.34700000 
C      26.30400000      21.32800000      37.43000000 
H      26.91900000      22.92200000      35.18600000 
H      25.64200000      20.33800000      35.26500000 
H      24.98800000      22.73500000      36.63200000 
H      23.69000000      21.38000000      38.07700000 
H      22.90800000      21.33800000      36.63400000 
H      23.95600000      20.10500000      37.26500000 
H      26.23200000      21.71500000      38.52200000 
H      26.41900000      20.38000000      37.63700000 
H      27.14100000      21.78300000      37.19700000 
N      23.87900000      22.39300000      33.89000000 
C      22.40200000      22.58200000      33.36700000 
C      22.62000000      21.94800000      31.93200000 
O      21.49500000      21.24000000      31.70300000 
C      22.56100000      24.28300000      32.35100000 
C      21.48000000      24.57800000      32.27100000 
C      21.23000000      24.30300000      30.71300000 
C      20.24500000      25.06700000      32.30700000 
C      19.88800000      24.60600000      29.75200000 
C      19.07300000      25.44600000      32.15900000 
C      19.15200000      25.08400000      30.70200000 
H      24.51400000      23.44900000      34.12800000 
H      21.95300000      22.61300000      33.66800000 
H      22.64000000      24.95700000      33.71300000 
H      23.39100000      24.42900000      32.10500000 
H      22.09500000      23.88100000      30.02800000 
H      20.35700000      25.28000000      33.83100000 
H      19.95400000      24.50000000      29.12700000 
H      18.30000000      25.81700000      32.46900000 
H      17.83100000      25.42900000      30.01700000 
N      23.37400000      21.70500000      31.05600000 
C      23.64500000      21.05200000      30.11800000 
C      23.08000000      19.76500000      30.22300000 
O      22.38000000      18.94000000      29.50200000 
C      24.76300000      21.11800000      29.05700000 
C      24.81400000      22.47400000      28.15700000 
C      24.68200000      23.64600000      28.94200000 
C      25.15300000      22.56100000      27.08200000 
C      24.76900000      24.87400000      28.27000000 
C      25.38500000      23.49600000      26.40500000 
C      25.23100000      24.84900000      26.72900000 
H      24.60800000      22.40600000      31.49700000 
H      22.48000000      21.53000000      29.30400000 
H      25.51900000      21.05700000      29.72800000 
H      24.67500000      20.37400000      28.38600000 
H      24.34400000      23.80100000      30.01800000 
H      25.36900000      21.45600000      26.50200000 
H      24.73000000      25.68700000      28.58600000 
H      25.73000000      23.55900000      25.14300000 
H      25.38200000      25.75300000      26.24700000 
N      24.11700000      19.21700000      31.57800000 
C      23.51100000      17.67700000      31.69200000 
C      22.33400000      17.50600000      32.16200000 
O      21.50900000      16.58400000      31.75000000 
C      24.79700000      17.24000000      32.67400000 
C      25.76400000      16.42600000      32.38200000 
O      25.44500000      15.77400000      30.68000000 
O      26.55500000      15.91100000      32.68500000 
H      24.33800000      19.64600000      31.69700000 
H      23.72300000      16.99900000      30.74700000 
H      25.26500000      18.09600000      33.07300000 
H      24.21400000      16.74500000      33.44500000 
N      21.87100000      18.55700000      33.08900000 
C      20.38300000      18.20800000      33.80000000 
C      19.40500000      18.38100000      32.41100000 
O      18.46600000      17.46400000      32.52400000 
C      20.03200000      19.03400000      34.87700000 
H      22.28100000      19.06000000      33.38700000 
H      20.38200000      17.14400000      34.11400000 
H      19.17300000      19.16500000      34.98700000 
H      20.90800000      19.15300000      35.50100000 
H      20.35000000      20.52400000      34.07600000 
N      19.81700000      19.19700000      31.67200000 
C      18.85200000      19.55200000      30.50400000 
C      18.98500000      18.02700000      29.67300000 
O      17.46400000      17.42600000      29.37900000 
C      19.58400000      20.35200000      29.50300000 
S      18.46200000      20.81900000      28.00400000 
H      20.39800000      19.68600000      31.64800000 
H      17.78800000      19.54200000      30.77500000 
H      19.40300000      21.32400000      30.10500000 
H      20.32700000      20.22700000      29.29000000 
H      19.20400000      21.00500000      27.37300000 
N      19.60100000      17.41500000      29.39700000 
C      19.64600000      16.38800000      28.66500000 
C      19.26900000      14.80700000      29.17900000 
O      19.02300000      14.35700000      28.82200000 
C      21.29500000      15.98400000      27.51000000 
C      21.20400000      17.15800000      26.82700000 
C      20.62100000      17.32300000      25.84200000 
O      19.52300000      16.97500000      25.62600000 
O      20.77000000      17.89500000      24.79400000 
H      20.69900000      17.88600000      29.63700000 
H      19.01400000      16.36000000      27.68200000 
H      22.01500000      15.90200000      28.60800000 
H      20.96200000      15.25000000      27.27900000 
H      21.59300000      18.10700000      27.39100000 
H      22.65200000      16.90600000      26.35900000 
N      19.53300000      15.04500000      30.50200000 
C      19.04900000      13.85100000      31.42800000 
C      17.29400000      14.04900000      31.54500000 
O      16.74300000      13.32900000      32.10400000 
C      19.18600000      14.13300000      32.69900000 
C      20.82800000      13.77400000      33.03300000 
C      21.37400000      12.34500000      32.57400000 
N      22.59500000      12.09300000      32.66900000 
C      23.16900000      11.89200000      33.94900000 
N      22.28600000      11.51300000      34.77600000 
N      24.60700000      11.51900000      34.07000000 
H      20.09400000      15.86300000      31.05600000 
H      19.05000000      13.21800000      31.05800000 
H      19.34300000      15.10300000      33.20200000 
H      18.87000000      13.50500000      33.44700000 
H      21.59700000      14.50900000      32.29100000 
H      21.27100000      13.92400000      33.98800000 
H      20.56100000      11.61100000      33.20900000 
H      20.94600000      12.21400000      31.45800000 
H      23.20900000      12.21600000      32.02400000 
H      21.62600000      11.62500000      34.90700000 
H      23.02800000      11.24700000      35.88900000 
H      25.10600000      11.80900000      33.09800000 
H      24.93100000      11.35400000      34.73100000 
N      16.79700000      15.39800000      30.94300000 
C      15.31700000      15.42900000      30.99900000 
C      15.02700000      15.53400000      32.36500000 
O      13.67900000      14.98800000      32.77700000 
C      14.72800000      14.68500000      30.31500000 
C      13.35300000      14.71500000      29.78100000 
C      12.71900000      13.85700000      28.71300000 
N      11.55300000      13.59300000      28.69200000 
C      10.66600000      14.66200000      27.99200000 
N      11.32100000      15.71100000      27.31900000 
N       8.96500000      14.57800000      27.68800000 
H      17.49500000      16.07200000      30.58400000 
H      15.35200000      16.63000000      30.59200000 
H      15.26000000      14.56600000      29.13300000 
H      14.88100000      13.55000000      30.40800000 
H      12.65200000      14.55400000      30.78500000 
H      13.05600000      15.89000000      29.57100000 
H      13.20100000      14.12600000      27.77900000 
H      13.15400000      12.89500000      28.84000000 
H      10.95700000      13.11500000      28.97700000 
H      11.91800000      15.87400000      27.43500000 
H      10.45800000      16.41300000      26.77700000 
H       8.90800000      13.54700000      28.29300000 
H       8.81700000      14.95300000      27.47300000 
N      15.90900000      16.04000000      33.31900000 
C      15.59200000      16.22000000      34.75900000 
C      15.31900000      17.54100000      35.17600000 
O      16.17100000      18.22600000      35.21400000 
C      16.58900000      15.31100000      35.56400000 
C      17.75200000      16.03400000      36.08200000 
C      18.93900000      15.22400000      36.17900000 
N      18.63700000      14.16400000      37.25600000 
C      19.34000000      13.24100000      37.71700000 
N      20.66500000      13.14000000      37.02800000 
N      18.84100000      12.15100000      38.44100000 
H      16.56900000      16.41900000      33.11500000 
H      14.55200000      15.41200000      34.80500000 
H      16.20500000      14.89900000      36.29100000 
H      16.78100000      14.41500000      34.98100000 
H      18.13300000      16.71700000      34.79100000 
H      17.60300000      16.67100000      36.52000000 
H      19.35300000      14.61100000      35.23600000 
H      19.86800000      15.90400000      36.60800000 
H      17.71900000      14.37200000      37.75100000 
H      21.05700000      13.90100000      36.51100000 
H      21.22000000      12.36000000      37.30300000 
H      18.10900000      12.34200000      38.64000000 
H      19.54300000      11.56500000      38.68100000 
N      13.88400000      17.44800000      35.61600000 
C      13.86400000      19.16100000      35.84800000 
C      13.81600000      19.19100000      37.19200000 
O      14.03500000      20.86300000      37.71400000 
C      11.97500000      19.17500000      35.83600000 
C      11.89600000      19.22500000      34.00800000 
C      11.96600000      18.02400000      33.25400000 
C      11.71500000      20.44300000      33.66700000 
C      11.86400000      18.24200000      32.09000000 
C      11.52800000      20.81000000      32.03600000 
C      11.61500000      19.18300000      31.23300000 
O      11.57000000      19.18800000      29.95000000 
H      13.33100000      16.98000000      35.66000000 
H      13.98800000      19.52800000      35.40900000 
H      11.63500000      18.43700000      35.95400000 
H      11.76000000      20.04300000      35.94800000 
H      12.16300000      17.18400000      33.73200000 
H      11.60800000      21.27600000      34.02500000 
H      11.93900000      17.07500000      31.22800000 
H      11.36400000      21.35800000      31.65800000 
H      11.32600000      20.35300000      29.59200000 
N      16.74100000      19.01200000      38.87700000 
C      17.89500000      19.46500000      38.74300000 
C      17.93800000      20.67600000      38.27400000 
O      18.89100000      21.83500000      38.77300000 
C      19.04800000      18.45900000      38.42000000 
H      16.46800000      18.08600000      38.31200000 
H      18.39500000      19.57700000      39.97800000 
H      20.03500000      18.86700000      38.29800000 
H      18.95700000      17.51800000      38.68600000 
H      18.71600000      18.40500000      37.21700000 
N      17.50300000      21.16600000      37.33700000 
C      17.23900000      22.43400000      36.59200000 
C      16.59800000      23.08600000      37.65900000 
O      17.20600000      24.45000000      37.79900000 
C      16.02900000      22.19100000      35.63400000 
C      15.83000000      23.45900000      34.85800000 
C      16.55600000      24.31300000      34.26100000 
C      14.57300000      23.47400000      33.86000000 
H      16.64900000      19.99500000      36.75000000 
H      18.03900000      22.61500000      36.32700000 
H      16.63200000      21.52900000      34.63400000 
H      15.32000000      21.65100000      35.78300000 
H      15.23400000      24.08200000      35.72600000 
H      16.60700000      25.14800000      33.95500000 
H      17.72600000      24.62200000      35.34900000 
H      17.41000000      23.72800000      33.58100000 
H      14.34700000      24.13900000      33.44100000 
H      15.27900000      22.55800000      32.86900000 
H      13.82500000      22.63500000      34.19900000 
N      19.25900000      24.04800000      39.91400000 
C      20.35300000      25.23800000      39.57300000 
C      19.71300000      26.45900000      39.48300000 
O      20.25400000      27.57400000      39.93500000 
C      20.47200000      24.57400000      38.13500000 
C      21.49800000      25.89100000      37.35600000 
C      21.54500000      23.56700000      38.32500000 
H      18.99600000      23.51900000      39.61500000 
H      21.10800000      25.25900000      40.11700000 
H      19.72200000      24.50200000      37.58700000 
H      21.69600000      25.48500000      36.40500000 
H      20.62500000      26.76100000      37.13100000 
H      22.21500000      26.17300000      37.84300000 
H      21.79900000      23.16000000      37.19500000 
H      22.41000000      23.73900000      38.61300000 
H      21.10100000      22.77700000      38.69200000 
N      29.21000000      15.44700000      37.67500000 
C      28.22600000      15.26900000      36.50900000 
C      29.29500000      14.54100000      35.26100000 
O      29.03800000      14.15400000      34.88100000 
C      27.61000000      16.33500000      35.79100000 
O      28.50500000      17.50300000      35.49200000 
C      26.82200000      17.11400000      36.86800000 
H      29.12200000      16.68500000      38.29200000 
H      27.88600000      14.62900000      36.68300000 
H      27.27000000      16.25700000      35.33800000 
H      29.17700000      17.78900000      36.22900000 
H      26.08800000      17.80900000      36.50600000 
H      25.85600000      16.04100000      37.39700000 
H      27.07000000      17.43500000      37.78500000 
H      20.20494137      31.84395533      28.84906437 
H      17.86895672      28.84743278      26.25958888 
H      19.31926682      29.84775668      24.14774496 
H      19.47406255      25.56431618      24.10898114 
H      22.45964016      26.74261884      20.41649087 
H      20.93532144      22.30247459      18.08929489 
H      31.31862092      19.86387301      21.57526534 
H      31.79600353      20.33661164      27.11971911 
H      31.86312435      22.54032042      25.06346730 
H      30.11440012      24.89660015      29.10239930 
H      30.53519243      27.67008027      26.91397512 
H      28.90520999      28.40863240      30.19716696 
H      27.37002264      25.65667886      37.45326189 
H      13.67491252      18.34506657      37.70628685 
H      16.59716566      18.80716879      39.74149746 
H      15.87307761      22.62028831      38.16654326 
H      19.53894352      23.57843979      40.62894394 
H      18.80719783      26.51902283      39.06357220 
H      29.04835758      14.82243967      38.30253177 
H      30.26352030      14.78756166      35.22671045 
