 168 
 
N                29.6762325290       33.5538195010       32.8389509897
C                30.5432332842       34.0571218932       33.8749465588
C                31.3145128323       35.3220724706       33.4838674723
O                31.3983048611       36.2570605461       34.2774500364
H                29.7753593098       32.5829659716       32.5624974400
H                29.9477123692       34.3246054998       34.7566647760
H                31.2592617607       33.2728863841       34.1261910367
N                28.9544142667       38.3901738690       32.8655764586
C                28.3781908501       38.7384727259       34.1427584442
C                29.4281130616       39.4763459719       34.9794889270
O                29.1951591673       40.5599587194       35.5002117857
C                27.8726414372       37.4783055492       34.8448290595
O                27.1815775837       37.8660240731       36.0068439459
H                28.9340261901       37.4143250593       32.5919444004
H                27.5336849977       39.4284965756       34.0083385564
H                27.2103845115       36.9453675549       34.1502558082
H                28.7260172155       36.8314362084       35.0915878697
H                26.7694751094       37.0880027098       36.4008287400
N                30.6055174973       38.8528579255       35.0557959928
C                31.7188119315       39.3739540117       35.8154065388
C                32.1011148037       40.7897949239       35.3898095300
O                32.2695921210       41.6908303827       36.2070010821
H                30.7370933955       37.9344210826       34.6426785744
H                31.4768006638       39.3986921851       36.8826055736
H                32.5715581079       38.7137360228       35.6553828804
N                33.0546393893       38.7497112210       45.4914184659
C                31.6828759908       38.4927892591       45.0975602538
C                31.6325367402       38.1766895724       43.5978832409
O                30.9553915756       37.2647975195       43.1465981661
C                30.8200842775       39.7091963568       45.4389460515
C                29.3192746473       39.3993866360       45.4870176454
C                28.9574647330       38.7259414006       46.8093526332
C                28.5198274665       40.6901755497       45.3167830304
H                33.2173540814       39.5058215663       46.1514756392
H                31.3138120227       37.5985815511       45.6182962177
H                31.1356750014       40.0767938940       46.4186318997
H                31.0162387466       40.4899431040       44.7028596148
H                29.0759804678       38.7211563000       44.6634864247
H                27.8906418876       38.5288905403       46.8607838789
H                29.4809314089       37.7804274801       46.9258223045
H                29.2230683500       39.3708880234       47.6437291867
H                27.4550355335       40.4872373226       45.3892842569
H                28.7921147854       41.4042675864       46.0907863413
H                28.7203889237       41.1381610663       44.3474016608
N                32.3442575690       39.0238281167       42.8475849412
C                32.4042866573       38.9506537639       41.4038152440
C                33.0002092933       37.6133520303       40.9571523046
O                32.4124497500       36.8834090870       40.1639831219
C                33.2400735390       40.1189142467       40.8424584648
O                32.6042298331       41.3605354873       41.0720297537
C                33.4345051486       39.9420623310       39.3405957027
H                32.8392662367       39.7812051968       43.3056095085
H                31.3838163278       39.0064002400       40.9976431410
H                34.2170838621       40.1089182327       41.3455092525
H                32.5896973564       41.5335003137       42.0257837660
H                33.8522711692       40.8485224598       38.9121244382
H                34.1023980117       39.1075385940       39.1464493305
H                32.4769238944       39.7415576462       38.8689887174
N                33.1763317789       34.9564121336       42.4356747933
C                32.3149623691       33.8746956564       42.8584229783
C                31.1981080265       33.6694100700       41.8365049123
O                30.8493915684       32.5564817172       41.4745464920
C                31.7314775925       34.1557684801       44.2352710169
H                33.3106231169       35.7488614295       43.0545693621
H                32.8899350738       32.9379582970       42.8765330365
H                31.1504781354       33.2942233614       44.5535368846
H                32.5395547792       34.3242626749       44.9417998987
H                31.0970106242       35.0370506424       44.1965800164
N                30.6291915594       34.7997117260       41.4083430530
C                29.5859172174       34.8109462700       40.4027930788
C                30.0932184204       34.1149271949       39.1422688485
O                29.4015879434       33.3301129463       38.4959698083
C                29.1592351698       36.2578266694       40.0839013881
C                28.3584142617       36.8818734840       41.2365993637
C                28.3904668176       36.3364130274       38.7662786552
C                26.9811510093       36.2730096162       41.4792056530
H                30.9284088814       35.6799597298       41.8109465964
H                28.7245267148       34.2285299160       40.7565141325
H                30.0822802069       36.8352776697       39.9733791153
H                28.9467222807       36.8098224929       42.1515351209
H                28.2300603257       37.9426470637       41.0113681496
H                28.0477446243       37.3545823313       38.5978393142
H                29.0257237389       36.0514125573       37.9312310979
H                27.5306720189       35.6729293670       38.7882249000
H                26.5239981040       36.7391124515       42.3489430042
H                26.3237576828       36.4335577163       40.6294428422
H                27.0406598795       35.2048261472       41.6728760824
N                31.3252830396       34.4545258287       38.7679149934
C                31.9042976174       33.9190785349       37.5494092213
C                31.9379097891       32.3927028728       37.6559390460
O                31.5317109755       31.6566852386       36.7534354025
C                33.3097437456       34.4946788804       37.3026856937
C                33.2077012268       36.0046372458       37.0457759431
C                33.9620685872       33.7787569052       36.1206662549
C                34.5600439593       36.6910953807       36.8920042535
H                31.8383447200       35.1710186495       39.2710335249
H                31.2575090182       34.1728069613       36.6987581603
H                33.9022229834       34.3203233458       38.2063726523
H                32.6138382904       36.1713848271       36.1450052380
H                32.6825319908       36.4787384839       37.8753437229
H                35.0112782681       34.0431314440       36.0545981428
H                33.8967343055       32.6990035498       36.2227098012
H                33.4681131381       34.0648959091       35.1935993890
H                34.4082790756       37.7640484402       36.7894281317
H                35.1863849118       36.5222814356       37.7639722714
H                35.0782849816       36.3452693120       36.0033191937
N                30.2981511122       30.4212907376       39.8063250946
C                28.9512913498       29.8839262542       39.8510958915
C                28.5040167866       29.5413196763       38.4356759057
O                28.0191355864       28.4568534957       38.1513156921
C                27.9303419647       30.8752825257       40.4303768932
C                27.4544034765       30.5976864818       41.8638224127
C                27.0419548900       29.1388083965       42.0620604624
C                28.4851240002       31.0174228881       42.9038807882
H                30.5107676501       31.2264966750       40.3895651017
H                28.9553040352       28.9440499679       40.4130335821
H                28.3609027406       31.8749605629       40.3795881671
H                27.0448658012       30.8628588082       39.7906742332
H                26.5582976434       31.2129088591       41.9987281251
H                26.3753115845       29.0583852566       42.9169468900
H                26.5193719004       28.7691924814       41.1837732292
H                27.9040065867       28.5020800860       42.2519525961
H                28.1452635957       30.7491235909       43.9005973957
H                29.4411826218       30.5384084408       42.7189524205
H                28.6455401816       32.0909324364       42.8774576114
N                28.5888460736       30.5557965023       37.5654590466
C                28.0812973959       30.4125831767       36.2178531366
C                28.7922917115       29.2865363654       35.4715371870
O                28.1582876757       28.4736084042       34.8103299096
C                28.1898599886       31.7400322897       35.4492570133
C                27.0413611422       32.6119002759       35.8139449071
N                27.0422528458       33.4132985121       36.9219920773
C                25.7715370132       32.6993141273       35.3072369168
C                25.8088954428       33.9463141127       37.0293001736
N                25.0213220688       33.5344736688       36.0707671986
H                28.9875338786       31.4454735366       37.8423043027
H                27.0294844741       30.1028492873       36.2877935092
H                29.1371387535       32.2144861587       35.7078971529
H                28.1970684076       31.5404542737       34.3770962238
H                27.8314564312       33.5411095891       37.5459008397
H                25.3549205351       32.2499750504       34.4305604569
H                25.5125500684       34.6215694068       37.8064968920
N                21.5163669906       32.8342380025       45.2126032598
C                22.7653228531       33.5525447246       45.3311484241
C                22.5263632472       35.0611443159       45.2988797651
O                23.0934125243       35.8077408562       46.0912402221
C                23.8020110540       33.1242252450       44.2716482883
O                23.4427973062       33.4893650226       42.9662888078
C                24.1100540833       31.6295741396       44.4035710310
H                21.3733638691       32.1814603028       44.4514795621
H                23.1897510080       33.3452162535       46.3245908050
H                24.7169082687       33.6969173126       44.4772743099
H                22.5322876220       33.2090801047       42.7580807157
H                24.8906812647       31.3625375105       43.6962004742
H                24.4457898503       31.4046881690       45.4116353742
H                23.2258469183       31.0396512810       44.1809770032
H                28.8185253706       33.6350992492       33.0992047755
H                31.7481132678       35.3854646088       32.5849947899
H                28.5204674500       38.8290018924       32.2105038472
H                32.2214806947       41.0052716137       34.4207471748
H                33.3980372090       38.0146644731       45.8810134041
H                33.8868797589       37.3174742730       41.3124997939
H                34.0064892249       34.6403702360       42.2909124578
H                32.2990944536       31.9568540812       38.4803063604
H                30.8833077493       29.7870350173       40.0618860291
H                29.7879106903       29.2059237492       35.5189128683
H                21.3850300976       32.3361686179       45.9506259617
H                21.9002214221       35.4539037498       44.6253172648
