503
Properties=species:S:1:pos:R:3 pbc="F F F"
N      33.24900000      24.59600000      22.78000000 
C      32.94300000      25.80300000      23.51500000 
C      34.15000000      26.34700000      24.17500000 
O      34.42700000      27.58800000      24.15500000 
C      31.83900000      25.51700000      24.51200000 
C      31.44700000      26.71100000      25.37600000 
C      30.99100000      27.89200000      24.53300000 
C      30.37800000      26.28500000      26.34400000 
H      32.82000000      23.75600000      23.03800000 
H      32.61800000      26.57100000      22.80900000 
H      30.97500000      25.17300000      23.96500000 
H      32.16600000      24.70700000      25.14700000 
H      32.31900000      27.02600000      25.93300000 
H      30.63000000      28.68600000      25.17200000 
H      31.76100000      28.27500000      23.90900000 
H      30.14600000      27.57900000      23.89200000 
H      30.08900000      27.11600000      26.99100000 
H      29.48600000      25.96000000      25.81100000 
H      30.70900000      25.47600000      26.97200000 
N      34.95200000      25.49900000      24.81800000 
C      36.15000000      25.96000000      25.47600000 
C      37.08100000      26.54500000      24.42700000 
O      37.72100000      27.59900000      24.68500000 
C      36.81600000      24.79400000      26.18900000 
C      35.96000000      24.40500000      27.40300000 
C      38.23200000      25.11800000      26.58200000 
C      36.31200000      23.04200000      27.95000000 
H      34.71800000      24.53300000      24.85100000 
H      35.92600000      26.73400000      26.17100000 
H      36.82400000      23.94700000      25.50200000 
H      36.11800000      25.17900000      28.16700000 
H      34.93400000      24.42700000      27.13500000 
H      38.66400000      24.32400000      27.17100000 
H      38.86800000      25.28000000      25.72200000 
H      38.25300000      26.03200000      27.18600000 
H      35.69100000      22.81800000      28.82600000 
H      36.12900000      22.29000000      27.21100000 
H      37.34400000      22.98000000      28.26900000 
N      35.98700000      30.01700000      23.49400000 
C      36.33100000      31.00400000      24.50400000 
C      37.79700000      31.33200000      24.43700000 
O      38.20800000      32.49200000      24.59300000 
C      36.05300000      30.47200000      25.89300000 
S      34.25100000      30.49900000      26.33900000 
H      35.58300000      29.16000000      23.76400000 
H      35.80300000      31.92600000      24.32800000 
H      36.36800000      29.44400000      25.96700000 
H      36.56500000      31.05600000      26.61200000 
H      34.12000000      31.83400000      26.44500000 
N      38.59600000      30.30800000      24.27100000 
C      40.04900000      30.49200000      24.24800000 
C      40.40400000      31.41700000      23.11700000 
O      41.16500000      32.37900000      23.26700000 
C      40.68800000      29.10900000      24.05000000 
O      40.38600000      28.30400000      25.16200000 
C      42.19000000      29.22900000      23.92100000 
H      38.23400000      29.38700000      24.18500000 
H      40.39200000      30.92100000      25.14600000 
H      40.27200000      28.67600000      23.15200000 
H      39.50500000      27.91600000      25.11300000 
H      42.60300000      28.23300000      23.79200000 
H      42.46000000      29.82400000      23.06800000 
H      42.60000000      29.66400000      24.81000000 
N      39.63300000      35.34000000      23.07400000 
C      40.44900000      36.26200000      23.81800000 
C      41.52500000      36.89900000      22.97300000 
O      42.13700000      37.87800000      23.42900000 
C      41.04100000      35.59700000      25.03900000 
C      40.00000000      35.25700000      26.09500000 
C      40.69000000      34.56700000      27.26300000 
C      39.27100000      36.49700000      26.58100000 
H      39.66900000      34.37400000      23.31200000 
H      39.83700000      37.10300000      24.12300000 
H      41.55700000      34.70600000      24.73300000 
H      41.77100000      36.27500000      25.47700000 
H      39.28600000      34.57400000      25.67300000 
H      39.98800000      34.29800000      28.02200000 
H      41.20900000      33.67700000      26.93000000 
H      41.43000000      35.24200000      27.69900000 
H      38.62200000      36.25200000      27.41600000 
H      39.97900000      37.24600000      26.91500000 
H      38.65000000      36.93600000      25.81300000 
N      29.56600000      32.60700000      19.31200000 
C      28.99900000      32.05300000      20.50900000 
C      27.57400000      31.59400000      20.24500000 
O      27.18900000      30.49700000      20.61200000 
C      29.01400000      33.04400000      21.65800000 
C      30.34900000      33.06300000      22.35500000 
C      30.65400000      32.01800000      23.23100000 
C      31.27600000      34.04200000      22.13500000 
C      31.87800000      31.98500000      23.87200000 
C      32.52800000      34.02000000      22.77500000 
C      32.82100000      32.97600000      23.64300000 
H      29.86200000      33.55700000      19.28700000 
H      29.53500000      31.15500000      20.79300000 
H      28.78200000      34.03600000      21.26600000 
H      28.25200000      32.78300000      22.36000000 
H      29.93300000      31.25400000      23.40500000 
H      31.05600000      34.83900000      21.44300000 
H      32.10600000      31.17900000      24.53900000 
H      33.22700000      34.77800000      22.59500000 
H      33.75300000      32.95400000      24.13400000 
N      27.18200000      20.62700000      27.18500000 
C      27.02900000      21.79900000      27.96600000 
C      25.65700000      22.38600000      27.77400000 
O      25.21400000      22.52900000      26.58600000 
C      28.07500000      22.85300000      27.60900000 
C      27.95200000      24.06600000      28.52500000 
C      29.46900000      22.24400000      27.69000000 
H      27.45900000      20.73700000      26.21400000 
H      27.14000000      21.54000000      29.01200000 
H      27.88500000      23.16000000      26.57900000 
H      28.71300000      24.77800000      28.29100000 
H      26.99500000      24.53700000      28.43300000 
H      28.07700000      23.74600000      29.55100000 
H      30.20900000      23.03200000      27.51700000 
H      29.63400000      21.83100000      28.65900000 
H      29.60500000      21.49000000      26.94500000 
N      21.84100000      25.94500000      32.14800000 
C      22.31500000      25.64200000      33.47300000 
C      22.24100000      26.92300000      34.28900000 
O      22.46400000      28.02400000      33.81100000 
C      23.73300000      25.13400000      33.35400000 
C      24.34800000      24.98000000      34.72500000 
O      24.93200000      25.95000000      35.23300000 
N      24.16100000      23.82600000      35.34800000 
H      22.46600000      25.83900000      31.36700000 
H      21.68900000      24.90900000      33.92900000 
H      23.71600000      24.18600000      32.84300000 
H      24.33600000      25.82300000      32.80500000 
H      24.51900000      23.71900000      36.25500000 
H      23.67100000      23.06600000      34.94000000 
N      24.04300000      28.30400000      36.53200000 
C      25.20600000      29.10900000      36.62700000 
C      25.55000000      29.70200000      35.31700000 
O      25.89800000      30.89100000      35.16800000 
C      26.38400000      28.25900000      37.12800000 
C      27.65000000      29.10600000      37.21100000 
C      26.07000000      27.65700000      38.49200000 
H      24.13700000      27.33000000      36.33600000 
H      25.03100000      29.92400000      37.31700000 
H      26.52400000      27.47300000      36.41700000 
H      28.45800000      28.51500000      37.59600000 
H      27.94100000      29.47500000      36.23600000 
H      27.49500000      29.94800000      37.85900000 
H      26.90400000      27.07200000      38.82100000 
H      25.87300000      28.43200000      39.20700000 
H      25.19500000      27.00800000      38.42800000 
N      25.51400000      28.87400000      34.24600000 
C      25.96200000      29.32100000      32.97400000 
C      25.06300000      30.33300000      32.36100000 
O      25.55400000      31.25200000      31.65800000 
C      26.09200000      28.15000000      32.01400000 
C      27.09000000      27.09400000      32.45100000 
C      27.27300000      26.11000000      31.29800000 
C      28.42500000      27.70500000      32.85200000 
H      25.22200000      27.92600000      34.39200000 
H      26.91700000      29.81000000      33.08600000 
H      25.11100000      27.70400000      31.87400000 
H      26.40200000      28.55100000      31.05500000 
H      26.69000000      26.56300000      33.29400000 
H      27.97700000      25.33500000      31.57500000 
H      26.33900000      25.65700000      31.02300000 
H      27.66700000      26.63600000      30.43400000 
H      29.14100000      26.91800000      33.06300000 
H      28.81600000      28.31400000      32.04300000 
H      28.33400000      28.31700000      33.73300000 
N      25.78600000      34.00400000      32.71900000 
C      27.08200000      34.31300000      32.16600000 
C      27.00500000      34.38700000      30.67700000 
O      27.54900000      35.32600000      30.03900000 
C      28.10800000      33.26900000      32.56800000 
C      28.39400000      33.27900000      34.07100000 
C      29.28000000      32.10300000      34.41500000 
C      29.03700000      34.58600000      34.46900000 
H      25.64500000      33.06400000      33.06700000 
H      27.37700000      35.29300000      32.50000000 
H      27.72000000      32.29300000      32.28000000 
H      29.01200000      33.44200000      32.04000000 
H      27.45600000      33.16300000      34.60300000 
H      29.48500000      32.08600000      35.47800000 
H      28.82100000      31.16800000      34.14200000 
H      30.23800000      32.18200000      33.89800000 
H      29.37400000      34.53900000      35.51500000 
H      29.91500000      34.76700000      33.85300000 
H      28.37300000      35.42500000      34.37500000 
N      26.36200000      33.40600000      30.05200000 
C      26.23200000      33.40700000      28.62300000 
C      25.45100000      34.63400000      28.20000000 
O      25.78400000      35.31500000      27.23800000 
C      25.47500000      32.15900000      28.18100000 
C      25.09000000      32.29700000      26.72000000 
C      26.34200000      30.94200000      28.40900000 
H      25.93200000      32.68300000      30.59300000 
H      27.18000000      33.45600000      28.14800000 
H      24.57800000      32.08300000      28.79100000 
H      24.70400000      31.35500000      26.35200000 
H      24.33600000      33.04900000      26.57600000 
H      25.95200000      32.55600000      26.13400000 
H      25.77400000      30.03500000      28.14400000 
H      27.21200000      30.97500000      27.76300000 
H      26.65300000      30.85100000      29.42100000 
N      27.49500000      37.71300000      28.40800000 
C      28.49900000      37.71700000      27.36600000 
C      27.85700000      38.14700000      26.07300000 
O      28.40200000      39.04200000      25.37300000 
C      29.07400000      36.31300000      27.21700000 
C      29.97700000      36.14600000      26.00900000 
C      31.11800000      37.14500000      26.01100000 
C      30.52100000      34.72600000      25.99200000 
H      27.34200000      36.82900000      28.90900000 
H      29.25700000      38.42000000      27.59600000 
H      29.63100000      36.08000000      28.11700000 
H      28.25500000      35.61600000      27.15200000 
H      29.38600000      36.29000000      25.12000000 
H      31.77600000      36.96400000      25.17100000 
H      30.75700000      38.16000000      25.93100000 
H      31.69200000      37.05000000      26.91000000 
H      31.11900000      34.55100000      25.11900000 
H      31.14300000      34.56400000      26.87000000 
H      29.71900000      34.00400000      26.01300000 
N      35.55300000      40.92400000      27.42100000 
C      36.65300000      40.08300000      27.87400000 
C      36.36400000      39.58900000      29.26400000 
O      36.68500000      38.42800000      29.60800000 
C      37.95800000      40.88600000      27.84800000 
C      38.37600000      41.09400000      26.39300000 
C      39.64700000      41.90300000      26.29800000 
N      40.24100000      41.75900000      24.98600000 
C      40.87700000      40.65400000      24.58100000 
N      41.15600000      39.70500000      25.40400000 
N      41.21700000      40.51900000      23.29900000 
H      35.73500000      41.91300000      27.26400000 
H      36.72800000      39.23600000      27.25800000 
H      37.82000000      41.81000000      28.34900000 
H      38.71700000      40.32200000      28.35500000 
H      38.51700000      40.13000000      25.93600000 
H      37.59200000      41.60300000      25.85100000 
H      39.46000000      42.94000000      26.45500000 
H      40.36700000      41.58600000      27.04700000 
H      40.07500000      42.48300000      24.30400000 
H      40.95200000      39.74600000      26.38500000 
H      41.58400000      38.85400000      25.04900000 
H      40.87900000      41.11300000      22.57600000 
H      41.67100000      39.68000000      23.03500000 
N      35.78300000      40.42200000      30.08700000 
C      35.42200000      40.03200000      31.43000000 
C      34.44700000      38.90200000      31.38500000 
O      34.56600000      37.89600000      32.11800000 
C      34.81100000      41.23300000      32.14500000 
O      35.77100000      42.27600000      32.26300000 
H      35.56700000      41.36300000      29.78500000 
H      36.29800000      39.68500000      31.96400000 
H      33.94800000      41.55300000      31.61900000 
H      34.53800000      40.93100000      33.14900000 
H      35.80400000      42.79700000      31.45100000 
N      33.42700000      39.02400000      30.53900000 
C      32.42800000      38.01000000      30.44800000 
C      33.01800000      36.73500000      29.92100000 
O      32.65000000      35.62200000      30.42100000 
C      31.29500000      38.47400000      29.54800000 
H      33.34000000      39.84500000      29.98000000 
H      32.04900000      37.78000000      31.43500000 
H      30.54600000      37.71200000      29.47200000 
H      30.84800000      39.36800000      29.97300000 
H      31.67600000      38.71200000      28.57400000 
N      33.89800000      36.80000000      28.95800000 
C      34.51800000      35.57900000      28.45800000 
C      35.28400000      34.93000000      29.58700000 
O      35.21900000      33.70400000      29.76500000 
C      35.45300000      35.88400000      27.28700000 
C      34.60000000      36.31500000      26.09500000 
C      36.27400000      34.66400000      26.95000000 
C      35.45200000      36.87200000      24.94800000 
H      34.12900000      37.66600000      28.53800000 
H      33.77500000      34.88300000      28.16200000 
H      36.08900000      36.69800000      27.56700000 
H      34.03100000      35.45600000      25.74700000 
H      33.90700000      37.06300000      26.39700000 
H      36.86600000      34.83200000      26.06600000 
H      36.96400000      34.41900000      27.75300000 
H      35.64300000      33.80600000      26.78200000 
H      34.80700000      37.18500000      24.12900000 
H      36.00100000      37.72800000      25.28800000 
H      36.13700000      36.14200000      24.57000000 
N      36.03100000      35.68900000      30.35100000 
C      36.78200000      35.10900000      31.44500000 
C      35.85900000      34.43800000      32.41200000 
O      36.14600000      33.34000000      32.91600000 
C      37.55000000      36.23600000      32.14400000 
C      38.25400000      35.69800000      33.34400000 
O      37.76900000      35.81300000      34.48800000 
N      39.41000000      35.07200000      33.12600000 
H      36.12800000      36.68000000      30.16200000 
H      37.45400000      34.36500000      31.07800000 
H      38.23900000      36.66400000      31.45200000 
H      36.84400000      36.98700000      32.46800000 
H      39.90900000      34.66800000      33.87800000 
H      39.78800000      34.99400000      32.20300000 
N      34.75400000      35.08400000      32.73500000 
C      33.83200000      34.53000000      33.69200000 
C      33.27800000      33.23200000      33.20400000 
O      33.12700000      32.26300000      33.97400000 
C      32.72300000      35.51300000      33.96000000 
C      33.18600000      36.71400000      34.71600000 
O      34.26200000      36.71400000      35.36500000 
N      32.38200000      37.76200000      34.70700000 
H      34.57800000      35.99600000      32.36100000 
H      34.37100000      34.32400000      34.62700000 
H      32.27700000      35.81800000      33.03000000 
H      31.96200000      35.03800000      34.55700000 
H      32.60900000      38.58200000      35.21300000 
H      31.54600000      37.76600000      34.16000000 
N      32.93600000      33.17800000      31.94000000 
C      32.41300000      31.93500000      31.39700000 
C      33.49300000      30.86200000      31.46000000 
O      33.24800000      29.74000000      31.84600000 
C      31.97500000      32.17200000      29.95600000 
C      31.43400000      30.92800000      29.27600000 
C      30.29400000      30.28500000      30.04600000 
C      30.97100000      31.29700000      27.87300000 
H      33.02200000      33.97200000      31.34200000 
H      31.61800000      31.58700000      31.99200000 
H      31.19300000      32.92400000      29.98300000 
H      32.80000000      32.57200000      29.39600000 
H      32.24100000      30.20000000      29.18500000 
H      29.86900000      29.47500000      29.49300000 
H      30.62800000      29.90800000      31.00700000 
H      29.51500000      31.02800000      30.22900000 
H      30.66500000      30.41000000      27.32300000 
H      30.12000000      31.96500000      27.93600000 
H      31.74700000      31.79200000      27.31800000 
N      34.71600000      31.25600000      31.05500000 
C      35.78800000      30.27800000      31.06300000 
C      35.93300000      29.63200000      32.38800000 
O      36.11600000      28.39800000      32.46000000 
C      37.09100000      30.97800000      30.65000000 
C      37.09000000      31.17700000      29.14100000 
C      38.30700000      30.16400000      31.07700000 
C      38.21200000      32.09000000      28.67400000 
H      34.88700000      32.14800000      30.75800000 
H      35.57200000      29.48200000      30.37100000 
H      37.11600000      31.92000000      31.14500000 
H      37.15400000      30.23200000      28.66500000 
H      36.14200000      31.63600000      28.85100000 
H      39.20200000      30.63200000      30.74600000 
H      38.35300000      30.05900000      32.14800000 
H      38.26000000      29.15900000      30.64900000 
H      38.16100000      32.27300000      27.61700000 
H      38.16400000      33.04400000      29.18200000 
H      39.18600000      31.65100000      28.88400000 
N      35.92900000      30.35400000      33.50000000 
C      36.22000000      29.69300000      34.73800000 
C      35.17600000      28.66200000      35.05700000 
O      35.46000000      27.63100000      35.63600000 
C      36.46800000      30.64300000      35.90900000 
C      37.59300000      31.60300000      35.56900000 
C      35.21000000      31.37700000      36.33600000 
H      35.82400000      31.36700000      33.44000000 
H      37.12800000      29.11600000      34.59400000 
H      36.80400000      30.00800000      36.72000000 
H      37.85800000      32.17900000      36.44000000 
H      38.46400000      31.08100000      35.21700000 
H      37.27700000      32.31000000      34.79300000 
H      35.46500000      32.06200000      37.15200000 
H      34.79100000      31.93500000      35.53600000 
H      34.46300000      30.68800000      36.71000000 
N      33.90800000      28.93100000      34.69000000 
C      32.90300000      27.95000000      34.95600000 
C      33.07900000      26.75400000      34.07900000 
O      32.84900000      25.60400000      34.50500000 
C      31.50900000      28.52200000      34.77800000 
C      31.20800000      29.55900000      35.84300000 
C      31.23500000      28.97600000      37.23800000 
O      31.06900000      27.73600000      37.37300000 
O      31.40200000      29.78600000      38.18700000 
H      33.69500000      29.75700000      34.17400000 
H      32.99300000      27.60200000      35.95600000 
H      31.41200000      28.95900000      33.78000000 
H      30.79500000      27.72100000      34.86200000 
H      31.90200000      30.38300000      35.79100000 
H      30.22500000      29.96100000      35.68500000 
N      33.48600000      26.93900000      32.84200000 
C      33.72200000      25.82300000      31.97400000 
C      34.89800000      25.02000000      32.49000000 
O      34.85600000      23.77600000      32.43800000 
C      33.96800000      26.28400000      30.55600000 
C      32.76400000      27.01200000      29.95300000 
C      33.08900000      27.32600000      28.50400000 
C      31.49600000      26.21700000      30.07000000 
H      33.66400000      27.88300000      32.50700000 
H      32.89000000      25.16500000      32.02100000 
H      34.83100000      26.92700000      30.53500000 
H      34.18100000      25.41200000      29.95200000 
H      32.64400000      27.95200000      30.49100000 
H      32.28200000      27.89900000      28.05300000 
H      33.99700000      27.89700000      28.42000000 
H      33.19900000      26.41100000      27.95000000 
H      30.68100000      26.72800000      29.56100000 
H      31.61100000      25.23800000      29.60900000 
H      31.19100000      26.06800000      31.10500000 
N      35.93900000      25.65000000      32.97300000 
C      37.03400000      24.95000000      33.54500000 
C      36.56000000      24.04400000      34.64400000 
O      37.03100000      22.90800000      34.81100000 
C      38.08400000      25.94100000      34.06800000 
C      38.80900000      26.55900000      32.87500000 
C      39.04700000      25.27800000      35.03200000 
C      39.70700000      27.72800000      33.27300000 
H      35.95800000      26.67200000      32.94800000 
H      37.50400000      24.30100000      32.80600000 
H      37.53600000      26.72100000      34.59400000 
H      39.39700000      25.79100000      32.40600000 
H      38.08200000      26.90800000      32.16100000 
H      39.79800000      25.99600000      35.35100000 
H      38.54900000      24.91300000      35.90300000 
H      39.55300000      24.45500000      34.54800000 
H      40.11900000      28.19700000      32.39800000 
H      39.13000000      28.47300000      33.81400000 
H      40.52000000      27.40500000      33.90400000 
N      35.61600000      24.53700000      35.42400000 
C      35.05800000      23.81800000      36.54600000 
C      34.06100000      22.77000000      36.13900000 
O      33.54200000      22.05300000      37.00400000 
C      34.42700000      24.81700000      37.51000000 
C      35.49800000      25.69800000      38.12600000 
C      34.86800000      26.88800000      38.80900000 
N      35.87100000      27.85700000      39.26800000 
C      36.59300000      27.72100000      40.35800000 
N      36.43400000      26.69200000      41.16200000 
N      37.50400000      28.65100000      40.65500000 
H      35.30500000      25.48200000      35.28900000 
H      35.86300000      23.28100000      37.03800000 
H      33.72700000      25.39700000      36.97800000 
H      33.91100000      24.25700000      38.27300000 
H      36.09100000      25.12300000      38.83600000 
H      36.15600000      26.06200000      37.36100000 
H      34.25000000      27.41600000      38.10500000 
H      34.24300000      26.59700000      39.64300000 
H      36.03300000      28.64200000      38.68100000 
H      35.77000000      25.97500000      40.96500000 
H      36.96900000      26.59400000      41.98100000 
H      37.64700000      29.41900000      40.08600000 
H      38.05400000      28.56000000      41.47900000 
N      33.76600000      22.64400000      34.84800000 
C      32.82700000      21.65000000      34.38200000 
C      31.40600000      22.04400000      34.64400000 
O      30.48900000      21.20200000      34.47500000 
H      34.18900000      23.23300000      34.16300000 
H      32.95400000      21.53500000      33.33100000 
H      32.99800000      20.71800000      34.86800000 
N      31.14600000      23.27600000      35.02000000 
C      29.82300000      23.65900000      35.34100000 
C      28.95000000      23.52600000      34.09200000 
O      29.28900000      23.91400000      33.05100000 
C      29.80300000      25.11800000      35.78700000 
O      30.70100000      25.20400000      36.87900000 
C      28.43300000      25.57200000      36.19000000 
H      31.87100000      23.96900000      35.07000000 
H      29.43200000      23.05800000      36.14700000 
H      30.18000000      25.71500000      34.96200000 
H      30.92200000      26.12100000      37.06500000 
H      28.50400000      26.56300000      36.60700000 
H      27.74900000      25.60900000      35.34400000 
H      28.02300000      24.90900000      36.93500000 
N      27.74500000      22.96200000      34.31700000 
C      26.78000000      22.94200000      33.25200000 
C      26.97700000      21.85100000      32.24900000 
O      26.31000000      21.90000000      31.18700000 
H      27.48500000      22.61800000      35.21100000 
H      25.79500000      22.78600000      33.69500000 
H      26.77400000      23.87100000      32.73500000 
N      27.79800000      20.86300000      32.54100000 
C      27.98500000      19.72100000      31.67200000 
C      27.22900000      18.53300000      32.19800000 
O      27.22400000      18.26800000      33.42500000 
C      29.45700000      19.38300000      31.58800000 
O      30.07300000      20.44300000      30.87700000 
H      28.33900000      20.91500000      33.38200000 
H      27.62300000      19.97300000      30.70400000 
H      29.86800000      19.28500000      32.57800000 
H      29.57200000      18.44400000      31.05400000 
H      31.04300000      20.37300000      30.87800000 
H      33.02285133      24.70506517      21.91573062 
H      37.18176580      26.09362804      23.54037178 
H      35.38932843      30.36945477      22.92079469 
H      40.02053811      31.26341205      22.20630372 
H      38.76643134      35.56590481      23.16358670 
H      41.73185025      36.53142036      22.06630370 
H      30.30666685      32.14668478      19.08946346 
H      26.93618271      32.19511111      19.76348725 
H      27.81450168      20.10210369      27.55164082 
H      25.11254806      22.65492321      28.56851394 
H      21.14285999      25.41277737      31.94965787 
H      22.00152059      26.88471005      35.25914612 
H      23.59389864      28.33178917      37.31144579 
H      24.07547454      30.27965575      32.50914812 
H      25.62036798      34.54658593      33.41768916 
H      24.63687287      34.90930818      28.71127529 
H      27.71696814      38.31264537      29.04136844 
H      27.00236198      37.72268191      25.77375426 
H      35.24546862      40.61754644      26.63264052 
H      26.72270283      17.94375452      31.56835491 
