 50 
 
N               191.0924359973       74.3278112185      110.2288109375
C               191.1203842082       74.9458786608      111.5343552133
C               192.2762647799       75.9631148166      111.5505829791
O               192.9163338719       76.1891847273      110.5304091073
C               191.1779783861       73.8939276005      112.6617698270
C               190.3424569116       72.6758142256      112.2691916276
O               190.8306962470       71.6764006621      111.7407683981
N               189.0409784993       72.7655701470      112.5447520722
H               191.8479074269       73.7044001730      109.9646087943
H               190.1800966870       75.5162830128      111.5899960091
H               192.2063207658       73.5624004423      112.8033591375
H               190.7851423762       74.3088576894      113.5877722100
H               188.4361552376       71.9981652066      112.2865387008
H               188.6297305956       73.5954473034      112.9390990557
N               192.4989923497       76.6114564442      112.7099103022
C               193.2330328415       77.8649049317      112.7123696645
C               194.6203580564       77.8319361280      112.0560776996
O               195.1027996018       78.8993379061      111.6945356694
C               193.3368037161       78.4838122632      114.1285600551
C               193.1687465450       77.5350990927      115.3187496738
C               194.1899751321       76.3947675197      115.3460474345
C               193.8272913603       75.2913672360      116.3353480617
N               193.8371719433       75.7913724012      117.7405197318
H               191.8077926956       76.5160087749      113.4404173875
H               192.6961023383       78.5817339337      112.0711806316
H               194.3063849198       78.9801321997      114.1843291151
H               192.5745090916       79.2597655491      114.2117993176
H               193.2783084251       78.1668944697      116.2010960723
H               192.1563884823       77.1275538030      115.3195324431
H               194.2480055629       75.9366422833      114.3597344552
H               195.1843755833       76.7872583586      115.5605345610
H               192.8334878281       74.9033941070      116.1116922822
H               194.5474580457       74.4775311259      116.2378140984
H               193.6429113238       75.0225769946      118.3995692537
H               194.7629074805       76.1854018273      117.9659512720
H               193.1233890308       76.5262935356      117.8586286879
N               195.2908119151       76.6762755983      111.9613102370
C               196.6298312775       76.6158022834      111.4221043579
C               196.7397474300       75.7599175095      110.1612300794
O               197.8389322421       75.4083842852      109.7294759623
C               197.6018100205       76.0557343399      112.4563184603
C               197.2157520953       74.5847639737      112.7888322789
O               196.3860979372       74.0483122240      112.0161636859
O               197.7299287531       74.0690195883      113.7909692361
H               194.8964533076       75.7852080883      112.2240704257
H               196.9111873693       77.6414545581      111.1490091470
H               198.6098738076       76.0209924181      112.0385368270
H               197.6243740648       76.6473597051      113.3710113977
H               190.3484839354       73.8276336446      110.1490755982
H               195.9128399061       75.4776457280      109.6748695257
