503
Properties=species:S:1:pos:R:3 pbc="F F F"
N      33.29200000      24.53900000      22.79200000 
C      32.91000000      26.19000000      23.26600000 
C      34.14000000      26.23600000      24.25900000 
O      34.41100000      27.55900000      24.15600000 
C      32.00500000      25.56200000      24.72700000 
C      31.62100000      26.60300000      25.32800000 
C      31.07000000      28.09100000      24.68100000 
C      30.28400000      26.30500000      26.19200000 
H      32.84200000      23.71100000      23.02700000 
H      32.68200000      26.37300000      22.93500000 
H      30.84400000      25.06900000      23.86300000 
H      32.17900000      24.67100000      25.18000000 
H      32.24100000      26.99700000      25.85000000 
H      30.60700000      28.59500000      25.07900000 
H      31.80700000      28.24700000      23.87200000 
H      30.04600000      27.46300000      23.71800000 
H      30.03400000      27.16000000      27.03100000 
H      29.49200000      25.94400000      25.78800000 
H      30.76000000      25.33800000      27.03400000 
N      34.99800000      25.54000000      24.78100000 
C      36.26400000      25.86400000      25.30100000 
C      36.89000000      26.62000000      24.76800000 
O      37.79000000      27.58200000      24.60900000 
C      36.81500000      24.92900000      26.11800000 
C      35.92300000      24.47400000      27.47900000 
C      38.21300000      25.03000000      26.38400000 
C      36.47500000      22.92800000      28.11200000 
H      34.74000000      24.51600000      24.85200000 
H      35.94000000      26.77800000      26.18900000 
H      36.84700000      23.85700000      25.44200000 
H      36.12500000      25.16800000      28.17000000 
H      34.91400000      24.41300000      27.09800000 
H      38.71100000      24.23700000      27.20600000 
H      38.82100000      25.26300000      25.80200000 
H      38.25900000      26.15400000      27.25200000 
H      35.70400000      22.80800000      28.76600000 
H      36.15100000      22.24700000      27.15600000 
H      37.14100000      22.97800000      28.20100000 
N      36.10900000      30.30300000      24.01900000 
C      36.29800000      31.01700000      24.27600000 
C      38.13200000      30.96600000      24.44500000 
O      38.14500000      32.45900000      24.59300000 
C      36.09700000      30.84300000      25.72800000 
S      34.09500000      30.99000000      26.41100000 
H      35.51900000      28.99900000      23.69400000 
H      35.75000000      31.77300000      24.46200000 
H      36.61100000      29.28100000      25.92500000 
H      36.59700000      31.07200000      26.73600000 
H      34.05200000      31.39700000      26.33100000 
N      38.55000000      30.46000000      24.28200000 
C      39.88600000      30.36900000      24.08500000 
C      40.60900000      31.48800000      23.16500000 
O      41.16700000      32.35800000      23.28900000 
C      40.45100000      29.20300000      23.83700000 
O      40.13400000      28.05300000      25.18100000 
C      42.51100000      28.99300000      24.12200000 
H      38.25200000      29.41200000      24.17800000 
H      40.45500000      30.92400000      25.23100000 
H      40.34700000      28.72300000      23.18400000 
H      39.79700000      28.02000000      25.04800000 
H      42.59000000      28.36500000      23.76400000 
H      42.50200000      29.89400000      22.98900000 
H      42.55300000      29.63300000      24.62700000 
N      39.85200000      35.28700000      23.26000000 
C      40.44200000      36.33700000      23.80200000 
C      41.50400000      37.16800000      23.31000000 
O      42.11600000      37.78000000      23.34800000 
C      41.13900000      35.54500000      24.92500000 
C      40.03900000      35.19800000      25.98700000 
C      40.75900000      34.46300000      27.25800000 
C      39.00600000      36.62900000      26.89100000 
H      39.68000000      34.28700000      23.30400000 
H      39.88200000      37.11400000      24.09400000 
H      41.58500000      34.71400000      24.76900000 
H      41.81900000      36.33500000      25.48700000 
H      39.34400000      34.61300000      25.72300000 
H      40.12500000      34.35300000      28.01100000 
H      41.21100000      33.81000000      26.99100000 
H      41.42600000      35.23200000      27.69500000 
H      38.81300000      36.31300000      27.26800000 
H      40.05100000      37.27000000      26.89900000 
H      38.72700000      36.94700000      25.79100000 
N      29.56100000      32.62800000      19.32000000 
C      28.84600000      32.11000000      20.31000000 
C      27.55700000      31.28600000      20.33000000 
O      27.28600000      30.72200000      20.52900000 
C      28.89400000      33.24400000      21.65100000 
C      30.22700000      33.05900000      22.20500000 
C      30.58100000      31.82500000      23.41400000 
C      31.32000000      34.24500000      22.13500000 
C      31.89700000      32.08300000      23.71600000 
C      32.58400000      34.10500000      22.65900000 
C      32.92800000      32.88800000      23.81800000 
H      29.84100000      33.51400000      19.26100000 
H      29.59900000      31.05700000      20.80900000 
H      28.78900000      33.88500000      21.30400000 
H      28.27000000      32.78500000      22.31900000 
H      29.91400000      31.27400000      23.34400000 
H      31.03800000      34.77400000      21.48800000 
H      32.07900000      31.12500000      24.57200000 
H      33.12500000      34.72900000      22.62500000 
H      33.60200000      32.95300000      24.06300000 
N      27.23300000      20.40800000      26.95800000 
C      27.13200000      21.80900000      27.97800000 
C      25.53800000      22.46700000      27.96300000 
O      25.17000000      22.51500000      26.41800000 
C      28.18300000      22.74000000      27.82900000 
C      27.81500000      24.24200000      28.57300000 
C      29.39800000      21.87700000      27.43400000 
H      27.43500000      20.74500000      26.28400000 
H      27.11900000      21.53000000      29.13300000 
H      27.85300000      23.20300000      26.42100000 
H      28.71100000      24.72800000      28.31100000 
H      27.06200000      24.49900000      28.41400000 
H      28.03300000      23.74000000      29.48200000 
H      30.31800000      23.19800000      27.52400000 
H      29.59400000      21.79500000      28.83700000 
H      29.56300000      21.63200000      27.14100000 
N      21.76200000      26.01500000      31.87100000 
C      22.21200000      25.48300000      33.55900000 
C      22.25700000      27.06300000      34.51800000 
O      22.47000000      28.17000000      33.73800000 
C      23.91100000      25.38800000      33.42100000 
C      24.24100000      24.69100000      34.72900000 
O      25.01200000      26.19000000      35.35000000 
N      24.08100000      23.70100000      35.34500000 
H      22.44500000      25.84700000      31.45400000 
H      21.66000000      24.93000000      33.94300000 
H      23.66000000      24.10300000      32.81700000 
H      24.23400000      25.73600000      32.91100000 
H      24.45800000      23.72000000      36.17900000 
H      23.71800000      23.17000000      35.04500000 
N      24.19400000      28.38600000      36.51400000 
C      25.10600000      29.22700000      36.51800000 
C      25.29200000      29.23000000      35.53500000 
O      26.06500000      31.32000000      35.11700000 
C      26.38900000      28.12400000      37.31500000 
C      27.75700000      29.10100000      36.97200000 
C      26.10300000      27.55300000      38.42300000 
H      24.11900000      27.24200000      36.34400000 
H      25.05000000      29.88900000      37.32400000 
H      26.51400000      27.54500000      36.44900000 
H      28.42200000      28.53300000      37.61400000 
H      27.89700000      29.46700000      36.37500000 
H      27.45300000      30.00600000      37.97500000 
H      26.86400000      27.08900000      38.82900000 
H      25.82000000      28.44600000      39.20300000 
H      25.24600000      27.03500000      38.41200000 
N      25.36400000      28.53500000      34.22400000 
C      26.28500000      29.48700000      32.94900000 
C      25.11200000      30.43500000      32.29300000 
O      25.47200000      31.17800000      31.74900000 
C      25.99800000      28.11500000      32.19000000 
C      27.00500000      26.79900000      32.38400000 
C      27.11900000      26.42300000      31.18700000 
C      28.57000000      27.90500000      32.83800000 
H      25.26400000      28.20800000      34.40800000 
H      26.75700000      29.76300000      33.08900000 
H      25.03600000      27.65400000      31.85200000 
H      26.43500000      28.64300000      30.94600000 
H      26.65200000      26.62600000      33.35000000 
H      28.05400000      25.21800000      31.66400000 
H      26.33100000      25.63900000      31.10000000 
H      27.65800000      26.59700000      30.49900000 
H      29.14500000      26.92200000      33.03600000 
H      28.79500000      28.34000000      32.02100000 
H      28.32200000      28.38500000      33.77500000 
N      25.97100000      34.31700000      32.51800000 
C      27.03800000      34.17100000      32.29800000 
C      26.93400000      34.52400000      30.57000000 
O      27.55900000      35.28000000      30.06000000 
C      28.20400000      33.22000000      32.55900000 
C      28.58900000      33.34900000      34.08300000 
C      29.19100000      32.13200000      34.53900000 
C      29.20900000      34.59000000      34.12000000 
H      25.59500000      32.89200000      33.09700000 
H      27.34800000      35.32700000      32.49500000 
H      27.68200000      32.31300000      32.26400000 
H      28.93800000      33.42900000      32.08200000 
H      27.31200000      33.15000000      34.66500000 
H      29.44900000      32.11600000      35.42900000 
H      28.75000000      31.10900000      34.11600000 
H      30.29200000      32.17100000      33.82500000 
H      29.43200000      34.52100000      35.67000000 
H      29.79800000      34.72800000      33.92400000 
H      28.36500000      35.47300000      34.35900000 
N      26.40400000      33.39200000      30.17900000 
C      26.16400000      33.36000000      28.52800000 
C      25.58900000      34.58300000      28.12200000 
O      25.76900000      35.31200000      27.24900000 
C      25.76300000      32.17000000      28.10000000 
C      24.82400000      32.37900000      26.72600000 
C      26.07200000      30.85300000      28.60500000 
H      25.90900000      32.64300000      30.57700000 
H      27.15300000      33.45000000      28.15100000 
H      24.42200000      32.07200000      28.88600000 
H      24.66900000      31.29400000      26.35700000 
H      24.40700000      32.98200000      26.58700000 
H      26.04200000      32.59200000      26.10300000 
H      25.78200000      30.09400000      28.14300000 
H      27.32100000      30.97500000      27.66300000 
H      26.61400000      30.83600000      29.45200000 
N      27.47100000      37.57500000      28.44100000 
C      28.49300000      37.78400000      27.38500000 
C      27.91700000      38.31300000      26.07600000 
O      28.33500000      38.91500000      25.43400000 
C      29.05200000      36.18700000      27.14800000 
C      29.85100000      36.16300000      26.10500000 
C      31.41600000      36.99500000      26.06300000 
C      30.34600000      34.80700000      25.80300000 
H      27.36500000      36.86900000      28.88400000 
H      29.28200000      38.46700000      27.59700000 
H      29.65800000      36.10200000      28.12700000 
H      28.27900000      35.63000000      27.14100000 
H      29.39300000      36.25900000      25.10500000 
H      31.76600000      36.98500000      25.15700000 
H      30.65100000      38.34900000      25.89000000 
H      31.60500000      37.08300000      26.84600000 
H      31.13200000      34.54500000      25.18600000 
H      31.25400000      34.55000000      26.95500000 
H      29.79000000      34.03200000      26.06400000 
N      35.62900000      41.05500000      27.38400000 
C      36.66000000      40.04400000      27.86200000 
C      36.49100000      39.62000000      29.12800000 
O      36.69000000      38.35400000      29.67200000 
C      37.83800000      40.98100000      27.93900000 
C      38.48900000      41.02500000      26.45200000 
C      39.76900000      41.97400000      26.39800000 
N      40.25700000      41.80800000      24.94800000 
C      40.82200000      40.74700000      24.32800000 
N      41.25400000      39.45100000      25.48700000 
N      41.21400000      40.60500000      23.11700000 
H      35.73600000      41.82500000      27.31200000 
H      36.73300000      39.30900000      27.29700000 
H      37.83600000      41.76000000      28.32900000 
H      38.80500000      40.29100000      28.42500000 
H      38.53400000      40.11200000      25.96100000 
H      37.48900000      41.69200000      25.81000000 
H      39.46900000      42.90500000      26.50000000 
H      40.32000000      41.60400000      27.01700000 
H      40.10100000      42.42600000      24.39300000 
H      40.94200000      39.71700000      26.42400000 
H      41.50000000      38.97600000      25.08700000 
H      40.93800000      41.01200000      22.76800000 
H      41.57300000      39.81700000      23.11900000 
N      35.64800000      40.47800000      30.29300000 
C      35.50600000      39.94700000      31.41200000 
C      34.46400000      39.03500000      31.36600000 
O      34.57400000      37.85800000      32.14300000 
C      34.95300000      41.28100000      32.30900000 
O      35.79800000      42.42700000      32.06700000 
H      35.57700000      41.36400000      29.78200000 
H      36.24400000      39.75100000      31.95200000 
H      33.87700000      41.55900000      31.58200000 
H      34.51800000      40.92400000      33.11100000 
H      35.81000000      42.68400000      31.64600000 
N      33.40400000      38.90000000      30.58400000 
C      32.48800000      37.88100000      30.28100000 
C      32.99100000      36.69200000      30.09800000 
O      32.63200000      35.68000000      30.41900000 
C      31.47100000      38.72500000      29.63200000 
H      33.36700000      39.91000000      29.96800000 
H      32.05000000      37.79300000      31.51700000 
H      30.40500000      37.54000000      29.43000000 
H      30.87400000      39.33600000      29.92200000 
H      31.66000000      38.72700000      28.64500000 
N      34.02200000      36.85900000      28.84000000 
C      34.35900000      35.43300000      28.67300000 
C      35.26300000      35.15500000      29.44300000 
O      35.22600000      33.50900000      29.80800000 
C      35.19400000      35.92800000      27.09800000 
C      34.58000000      36.03000000      26.22800000 
C      36.53000000      34.67800000      26.92000000 
C      35.47800000      36.73200000      24.65400000 
H      34.15500000      37.69900000      28.52000000 
H      33.87200000      34.95100000      28.17700000 
H      36.21400000      36.80100000      27.60300000 
H      34.05600000      35.51800000      25.79800000 
H      33.85200000      37.13500000      26.46600000 
H      36.80800000      34.83600000      26.11500000 
H      36.94300000      34.41200000      27.72800000 
H      35.53700000      33.70800000      26.77200000 
H      34.77500000      37.16400000      24.16900000 
H      36.07300000      37.81600000      25.33100000 
H      35.99800000      36.16300000      24.60500000 
N      36.10300000      35.85200000      30.40300000 
C      36.92500000      35.17800000      31.39300000 
C      35.98900000      34.23100000      32.47400000 
O      36.08100000      33.48000000      32.87800000 
C      37.33000000      36.32800000      32.34500000 
C      37.99000000      35.69800000      33.60300000 
O      37.90500000      35.79400000      34.26100000 
N      39.59600000      34.94400000      33.49200000 
H      36.11200000      36.56400000      30.19100000 
H      37.39900000      34.40900000      31.14000000 
H      38.30500000      36.71000000      31.35800000 
H      36.95500000      36.86300000      32.42500000 
H      39.79000000      34.78700000      33.66800000 
H      39.84700000      35.00600000      32.14900000 
N      34.71100000      35.10500000      32.79600000 
C      33.98100000      34.33200000      33.65900000 
C      33.22000000      33.34200000      33.22900000 
O      33.14300000      32.18700000      34.04600000 
C      32.61200000      35.67500000      33.76400000 
C      33.06100000      36.86000000      34.67400000 
O      34.52600000      36.63300000      35.53100000 
N      32.13800000      37.67600000      34.55600000 
H      34.55700000      36.03900000      32.38200000 
H      34.33200000      34.33000000      34.57600000 
H      32.35500000      35.75100000      33.22100000 
H      31.90800000      34.97000000      34.63000000 
H      32.65200000      38.58500000      35.24200000 
H      31.70300000      37.79000000      34.28000000 
N      33.02600000      33.35600000      31.95900000 
C      32.15100000      31.91000000      31.40800000 
C      33.49500000      30.92200000      31.48000000 
O      33.20600000      29.54500000      31.88300000 
C      32.37400000      32.23000000      30.07000000 
C      31.35100000      30.68800000      29.23200000 
C      30.40500000      30.19900000      30.11900000 
C      30.79500000      31.12600000      27.90500000 
H      33.02300000      33.93200000      31.32700000 
H      31.73900000      31.61500000      31.93100000 
H      31.05500000      33.07100000      29.99300000 
H      32.76000000      32.56300000      29.39800000 
H      32.21800000      30.26000000      29.20600000 
H      29.83600000      29.48500000      29.43200000 
H      30.61800000      29.95600000      30.96100000 
H      29.45500000      31.15200000      30.26900000 
H      30.66200000      30.46700000      27.35000000 
H      30.03600000      32.06400000      27.95600000 
H      31.97300000      31.93100000      27.19600000 
N      34.90600000      31.06100000      31.05500000 
C      35.79500000      30.25600000      31.23600000 
C      35.91800000      29.39700000      32.60300000 
O      36.11700000      28.55700000      32.37400000 
C      37.06600000      31.10700000      30.37300000 
C      37.09200000      31.18500000      29.22700000 
C      38.27200000      29.83000000      31.20000000 
C      38.28800000      31.90500000      28.63500000 
H      34.92700000      32.36500000      30.71100000 
H      35.56000000      29.46200000      30.31500000 
H      37.11500000      31.99900000      31.22100000 
H      37.15900000      30.22400000      28.67300000 
H      36.15500000      31.64100000      28.87400000 
H      39.30600000      30.68500000      30.68800000 
H      38.38700000      30.09200000      32.15800000 
H      38.28700000      29.30200000      30.69900000 
H      38.16300000      32.28800000      27.58400000 
H      38.19600000      33.19400000      29.32800000 
H      39.16600000      31.64500000      28.87100000 
N      35.94000000      30.31800000      33.43300000 
C      36.20800000      29.60700000      34.80800000 
C      35.28200000      28.89200000      34.82600000 
O      35.50100000      27.45700000      35.77600000 
C      36.67000000      30.66100000      36.15600000 
C      37.46100000      31.65400000      35.50900000 
C      34.97900000      31.46900000      36.35900000 
H      35.82800000      31.46400000      33.46500000 
H      37.08000000      29.14500000      34.57600000 
H      36.76700000      30.05900000      36.61700000 
H      37.88600000      32.16700000      36.51800000 
H      38.49700000      31.06000000      35.19100000 
H      37.31600000      32.26600000      34.90000000 
H      35.52700000      32.06800000      37.14300000 
H      34.82100000      31.90900000      35.57100000 
H      34.53300000      30.72200000      36.68600000 
N      33.89200000      28.97900000      34.77800000 
C      32.77300000      27.95900000      34.59300000 
C      33.08700000      26.85000000      34.18000000 
O      32.86500000      25.48200000      34.51700000 
C      31.56100000      28.65200000      34.80600000 
C      30.99400000      29.59300000      35.83300000 
C      31.33000000      28.80300000      37.40700000 
O      31.09200000      27.71700000      37.27900000 
O      31.35800000      29.88000000      38.17900000 
H      33.69500000      29.75600000      34.17600000 
H      33.03800000      27.52200000      36.15100000 
H      31.44500000      28.91400000      33.79200000 
H      30.83700000      27.72600000      34.84500000 
H      31.91300000      30.31700000      35.76200000 
H      30.39900000      29.90200000      35.69600000 
N      33.52500000      27.07200000      32.83100000 
C      33.27500000      25.64900000      32.05300000 
C      35.14200000      24.69200000      32.50900000 
O      34.78200000      23.85400000      32.44900000 
C      34.03100000      26.29800000      30.43300000 
C      32.81400000      27.03000000      29.75500000 
C      33.20100000      27.22000000      28.55800000 
C      31.15000000      26.27700000      30.09100000 
H      33.66900000      27.84800000      32.53300000 
H      33.11800000      25.32700000      32.00800000 
H      34.89500000      26.94600000      30.53500000 
H      34.17300000      25.39600000      29.98800000 
H      32.65600000      28.05100000      30.61100000 
H      32.21900000      27.92200000      28.05400000 
H      34.02000000      27.89000000      28.42600000 
H      33.15300000      26.44600000      27.98200000 
H      30.83200000      26.68300000      29.65500000 
H      31.67600000      25.12200000      29.58500000 
H      31.19800000      26.08900000      31.12200000 
N      35.89300000      25.97300000      33.00500000 
C      37.09400000      24.93200000      33.47200000 
C      36.40600000      24.28600000      34.77100000 
O      37.06600000      22.78000000      34.86300000 
C      37.93600000      25.98500000      33.93500000 
C      38.84000000      26.38400000      33.00800000 
C      39.11800000      25.22200000      35.34200000 
C      39.77100000      27.76300000      33.21000000 
H      36.01100000      26.55800000      32.99700000 
H      37.51600000      24.28900000      32.83200000 
H      37.54700000      26.73800000      34.63100000 
H      39.43800000      25.75800000      32.40000000 
H      37.97900000      26.95100000      32.08300000 
H      39.79100000      25.95300000      35.30800000 
H      38.60900000      24.96100000      35.79300000 
H      39.55800000      24.40500000      34.53300000 
H      40.14600000      28.20600000      32.37400000 
H      39.06900000      28.54600000      33.86400000 
H      40.53200000      27.39400000      33.96900000 
N      35.73400000      24.65900000      35.24800000 
C      35.04200000      23.76100000      36.47900000 
C      34.06000000      22.92400000      36.01900000 
O      33.50700000      21.91200000      37.18800000 
C      34.55200000      24.76400000      37.67700000 
C      35.45100000      25.51200000      38.17300000 
C      34.86400000      27.01900000      38.68300000 
N      36.00600000      28.06700000      39.33400000 
C      36.66500000      27.86700000      40.26000000 
N      36.37700000      26.72800000      41.08000000 
N      37.33200000      28.45400000      40.60600000 
H      35.35400000      25.32100000      35.33000000 
H      35.93900000      23.26200000      37.11000000 
H      33.63100000      25.46100000      36.93400000 
H      33.91900000      24.23000000      38.35800000 
H      36.13700000      25.15300000      38.81100000 
H      36.22100000      26.16800000      37.29500000 
H      34.25900000      27.40100000      38.16400000 
H      34.24600000      26.54200000      39.74300000 
H      35.99800000      28.45300000      38.83300000 
H      35.78800000      25.97600000      41.03900000 
H      36.99500000      26.54400000      42.06400000 
H      37.67600000      29.43000000      40.04100000 
H      38.16500000      28.53500000      41.61400000 
N      33.78600000      22.72000000      34.65400000 
C      32.86900000      21.65900000      34.66800000 
C      31.67500000      22.22100000      34.64300000 
O      30.17800000      20.85400000      34.39100000 
H      34.12700000      23.18400000      34.32100000 
H      33.00200000      21.52300000      33.24500000 
H      33.00400000      20.78800000      34.84500000 
N      31.37100000      23.64800000      35.12700000 
C      29.69600000      23.44300000      35.49700000 
C      28.94700000      23.56500000      34.05900000 
O      29.32100000      24.02600000      32.91000000 
C      29.84300000      25.10400000      35.96000000 
O      30.62300000      24.95800000      36.84300000 
C      28.43100000      25.52400000      36.16700000 
H      31.79500000      23.86200000      35.06700000 
H      29.44800000      23.05100000      36.18300000 
H      30.14400000      25.84100000      34.89600000 
H      30.98000000      26.30400000      37.10700000 
H      28.45700000      26.51600000      36.69300000 
H      27.79100000      25.54100000      35.54500000 
H      28.02300000      24.85100000      37.00600000 
N      27.62400000      22.90000000      34.49800000 
C      26.77100000      22.96700000      33.20700000 
C      27.00300000      21.80800000      32.28700000 
O      26.24600000      21.89200000      31.12400000 
H      27.47800000      22.66600000      35.19200000 
H      25.82800000      22.79800000      33.71000000 
H      26.74900000      23.86400000      32.76800000 
N      27.88900000      20.99300000      32.65900000 
C      27.81800000      19.71900000      31.56900000 
C      27.42700000      18.55000000      32.21600000 
O      27.14800000      18.30800000      33.34500000 
C      29.43200000      19.40100000      31.68000000 
O      30.48900000      20.44700000      30.81000000 
H      28.35300000      20.90400000      33.34300000 
H      27.68500000      19.96100000      30.80700000 
H      29.86500000      19.23500000      32.59900000 
H      29.57500000      18.38100000      31.01900000 
H      30.69100000      20.38900000      30.90600000 
H      33.25300048      24.46709743      21.89572490 
H      36.80259726      26.73330338      23.77829140 
H      36.05684292      30.31114863      23.12054953 
H      40.56887071      31.41788430      22.16826863 
H      38.96145389      35.41641654      23.24662150 
H      41.81262885      37.07670245      22.36320911 
H      30.34815724      32.19583833      19.25983542 
H      26.72802868      31.64394861      19.90025666 
H      27.85290192      19.84293551      27.28422651 
H      25.08944279      22.71041552      28.82296820 
H      21.04980988      25.54353942      31.58725689 
H      22.13160337      27.04952300      35.51001515 
H      23.79309018      28.37375750      37.31968073 
H      24.14857514      30.22878433      32.46413630 
H      25.87564866      34.98565418      33.11281906 
H      24.84591952      34.98751137      28.65510595 
H      27.59408771      38.17433733      29.10103347 
H      26.99843218      38.04201746      25.78824729 
H      35.36884961      40.84645071      26.54804009 
H      27.33873548      17.69824455      31.69954862 
