142
Properties=species:S:1:pos:R:3 pbc="F F F"
N      55.11500000      51.22200000      48.10500000 
C      55.76100000      52.00100000      46.98300000 
C      56.44000000      53.20700000      47.62400000 
O      55.88200000      53.79200000      48.51900000 
C      54.72000000      52.54300000      46.04400000 
C      54.07000000      51.38400000      45.31200000 
C      55.31900000      53.46400000      45.02000000 
C      52.74900000      51.76600000      44.67100000 
H      54.64900000      51.82200000      48.75200000 
H      56.48100000      51.38100000      46.51900000 
H      53.96200000      53.05100000      46.62300000 
H      54.71200000      50.93700000      44.59400000 
H      53.82300000      50.57600000      46.05200000 
H      54.61000000      53.75700000      44.25800000 
H      55.61800000      54.38900000      45.46700000 
H      56.18700000      53.06300000      44.52800000 
H      52.23700000      50.91900000      44.21000000 
H      52.06300000      52.17200000      45.36300000 
H      52.87800000      52.47700000      43.89900000 
N      57.19500000      64.65600000      46.24500000 
C      55.84900000      64.32200000      46.02400000 
C      55.46700000      63.30400000      47.11600000 
O      56.29700000      62.78500000      47.83600000 
C      55.74200000      63.71200000      44.59700000 
C      56.22100000      64.78400000      43.58900000 
C      56.33100000      64.22500000      42.22500000 
C      55.23400000      65.96100000      43.55900000 
H      57.94300000      64.03600000      45.81200000 
H      55.24700000      65.12400000      46.12100000 
H      56.35800000      62.86300000      44.46400000 
H      54.73200000      63.44900000      44.36600000 
H      57.12000000      65.14300000      43.83500000 
H      56.62700000      64.91400000      41.48200000 
H      57.00200000      63.38600000      42.17400000 
H      55.32800000      63.78800000      41.86000000 
H      55.52500000      66.69400000      42.84900000 
H      54.21100000      65.64800000      43.34000000 
H      55.21600000      66.51200000      44.48900000 
N      54.18800000      63.11800000      47.35600000 
C      53.71700000      62.55800000      48.60700000 
C      53.92100000      61.07400000      48.68800000 
O      53.95300000      60.39700000      47.74700000 
C      52.24400000      63.01500000      48.69300000 
C      51.77300000      62.98600000      47.22200000 
C      53.04500000      63.56500000      46.48600000 
H      54.29600000      63.04800000      49.40600000 
H      51.65700000      62.29400000      49.30000000 
H      52.17800000      63.95400000      49.11300000 
H      51.62300000      62.03300000      46.88800000 
H      50.95500000      63.64600000      47.07300000 
H      53.13500000      63.17700000      45.52600000 
H      53.02900000      64.59700000      46.41600000 
N      54.00800000      60.63200000      50.00900000 
C      54.12300000      59.26800000      50.22200000 
C      52.86700000      58.59500000      50.66300000 
O      52.03700000      59.23000000      51.43100000 
C      55.23800000      58.95900000      51.29800000 
C      54.91300000      59.53800000      52.68400000 
O      54.68900000      60.88400000      52.66700000 
O      54.94300000      58.83500000      53.64200000 
H      54.08200000      61.21000000      50.75300000 
H      54.46000000      58.70800000      49.32700000 
H      55.32000000      57.84300000      51.43600000 
H      56.16600000      59.35200000      50.93500000 
N      52.64900000      57.40300000      50.30500000 
C      51.46600000      56.57200000      50.59600000 
C      51.90200000      55.10900000      50.35400000 
O      53.07100000      54.84000000      50.05600000 
C      50.25200000      57.03900000      49.87900000 
C      50.48800000      56.98700000      48.37900000 
C      50.70700000      58.42800000      47.79200000 
O      50.41100000      59.41600000      48.39000000 
O      51.20900000      58.44200000      46.65300000 
H      53.36000000      56.88800000      49.76900000 
H      51.31600000      56.61900000      51.69400000 
H      49.43700000      56.33900000      50.14600000 
H      50.00800000      57.97300000      50.21800000 
H      51.27800000      56.39000000      48.08000000 
H      49.56000000      56.69000000      47.86700000 
N      50.93300000      54.22200000      50.34400000 
C      51.20600000      52.80900000      50.12900000 
C      49.88400000      52.10200000      49.70900000 
O      48.89300000      52.72400000      49.92200000 
C      51.83900000      52.16500000      51.33500000 
C      50.89600000      52.00700000      52.49000000 
C      50.55400000      53.03300000      53.27900000 
C      50.26500000      50.80800000      52.74700000 
C      49.69200000      52.99300000      54.29200000 
C      49.33900000      50.65000000      53.81500000 
C      49.07100000      51.88300000      54.60700000 
H      49.98400000      54.42000000      50.53600000 
H      51.92600000      52.72300000      49.28300000 
H      52.16800000      51.09300000      51.03900000 
H      52.67200000      52.65100000      51.61800000 
H      51.08700000      54.05600000      53.06600000 
H      50.44500000      49.98200000      52.17900000 
H      49.46600000      53.87400000      54.91600000 
H      48.89800000      49.78600000      54.02600000 
H      48.39500000      51.72600000      55.38900000 
N      45.21600000      55.90200000      52.61100000 
C      46.13800000      57.01400000      52.64400000 
C      46.85600000      57.02800000      53.95900000 
O      48.15300000      56.97100000      53.98400000 
C      45.39900000      58.39200000      52.39500000 
C      46.41100000      59.45200000      52.34400000 
C      47.39400000      59.48600000      51.24700000 
C      46.47600000      60.44800000      53.30200000 
C      48.27300000      60.44600000      51.21500000 
C      47.50900000      61.46900000      53.14700000 
C      48.33100000      61.39900000      52.13400000 
O      49.37300000      62.43600000      52.03800000 
H      44.19900000      56.14200000      52.76100000 
H      46.85000000      56.85900000      51.88100000 
H      44.87900000      58.26300000      51.52600000 
H      44.72000000      58.54700000      53.21300000 
H      47.29500000      58.67900000      50.51200000 
H      45.81700000      60.46900000      54.07000000 
H      49.04600000      60.43000000      50.35500000 
H      47.51300000      62.24000000      53.94800000 
H      49.33300000      63.03100000      52.66400000 
N      54.02100000      55.39700000      56.67700000 
C      54.75400000      54.20800000      56.19500000 
C      55.59400000      53.59000000      57.24800000 
O      56.48300000      54.18400000      57.75800000 
C      55.61500000      54.71900000      54.97400000 
C      54.73800000      54.80200000      53.70400000 
O      54.30100000      53.82000000      53.31800000 
N      54.63500000      55.98300000      53.20000000 
H      54.36500000      56.26000000      56.54000000 
H      54.03600000      53.50000000      55.77800000 
H      56.05300000      55.63600000      55.24300000 
H      56.37500000      53.98400000      54.81700000 
H      54.09100000      56.00700000      52.30000000 
H      54.93800000      56.83200000      53.53500000 
H      54.50964227      50.64999414      47.76389691 
H      57.33842835      53.50496549      47.30144293 
H      57.35776126      65.47894286      45.91900334 
H      49.91329180      51.19247594      49.29438214 
H      45.26212051      55.49721211      51.80849164 
H      46.33646948      57.08103985      54.81180409 
H      53.21011179      55.42822922      56.28778920 
H      55.41586964      52.65119915      57.54282630 
