303
Properties=species:S:1:pos:R:3 pbc="F F F"
N      28.73400000      14.14000000      22.41500000 
C      27.81700000      14.17100000      23.49700000 
C      27.27400000      12.77800000      23.76100000 
O      26.42900000      12.29700000      22.87900000 
C      26.70500000      15.15800000      23.25500000 
C      27.23300000      16.61700000      23.13300000 
C      25.63300000      15.12100000      24.36100000 
C      26.45600000      17.36800000      22.12200000 
H      28.36000000      13.74200000      21.55700000 
H      28.35700000      14.46800000      24.39200000 
H      26.23600000      14.85400000      22.35800000 
H      27.19400000      17.03000000      24.05500000 
H      28.28100000      16.53700000      22.80400000 
H      24.91200000      15.86500000      24.23700000 
H      25.18800000      14.16300000      24.44200000 
H      26.16600000      15.28100000      25.34300000 
H      26.71900000      18.42300000      22.13700000 
H      26.64000000      17.05400000      21.12600000 
H      25.41300000      17.31400000      22.27000000 
N      25.13500000      10.60200000      13.54800000 
C      24.71900000      12.00300000      13.98100000 
C      25.38300000      12.44100000      15.20100000 
O      25.23800000      13.55600000      15.61300000 
C      23.19800000      11.91700000      14.29200000 
C      22.50700000      11.47000000      12.99800000 
O      22.25500000      10.22100000      12.76900000 
O      22.24800000      12.38600000      12.18700000 
H      24.47900000       9.88600000      13.71100000 
H      24.89000000      12.63900000      13.21900000 
H      23.02700000      11.18500000      14.98400000 
H      22.87600000      12.89500000      14.59600000 
N      26.21400000      11.58400000      15.83800000 
C      26.69000000      11.90300000      17.14900000 
C      27.79700000      13.03400000      17.06300000 
O      27.93800000      13.78100000      17.97000000 
C      27.36600000      10.63400000      17.70200000 
O      27.74800000      10.83600000      19.03300000 
H      26.32000000      10.64500000      15.49800000 
H      26.02100000      12.23300000      17.78500000 
H      26.64600000       9.85100000      17.62500000 
H      28.24600000      10.34400000      17.08600000 
H      28.08100000      10.13800000      19.46600000 
N      29.71600000      16.01300000      14.48500000 
C      29.62700000      16.89200000      13.35400000 
C      30.86000000      17.62300000      13.24800000 
O      31.97500000      17.03100000      13.40600000 
C      28.31100000      17.70500000      13.41200000 
C      27.06000000      16.97800000      13.66200000 
C      26.71800000      16.76200000      15.11000000 
C      25.87100000      17.57500000      12.99800000 
H      30.12500000      16.35700000      15.30000000 
H      29.54500000      16.23800000      12.46200000 
H      28.43400000      18.48300000      14.12700000 
H      28.26500000      18.23900000      12.43400000 
H      27.20700000      15.93600000      13.17500000 
H      25.97100000      16.11600000      15.24600000 
H      27.60500000      16.33700000      15.66400000 
H      26.53700000      17.70800000      15.53300000 
H      24.97400000      17.04000000      13.15900000 
H      25.74000000      18.59100000      13.36000000 
H      26.00100000      17.68400000      11.88400000 
N      28.21900000      27.26900000      21.07600000 
C      26.90200000      27.32300000      21.80700000 
C      25.79900000      26.75000000      20.96800000 
O      24.95100000      26.05600000      21.38900000 
C      26.66400000      28.76400000      22.18400000 
C      25.36700000      28.88200000      23.06500000 
C      25.60500000      28.32600000      24.45600000 
N      24.72600000      27.26400000      24.80500000 
C      24.35500000      27.01000000      25.97000000 
N      24.70300000      27.65600000      27.02400000 
N      23.46400000      25.97900000      26.22200000 
H      28.51900000      28.15000000      20.72000000 
H      26.98900000      26.71700000      22.67800000 
H      27.50200000      29.17200000      22.73200000 
H      26.51300000      29.37500000      21.27800000 
H      25.10400000      29.97100000      23.12400000 
H      24.55000000      28.37800000      22.60100000 
H      26.65100000      28.01000000      24.57800000 
H      25.47900000      29.17500000      25.20000000 
H      24.45400000      26.66600000      24.06300000 
H      25.36000000      28.36900000      26.97700000 
H      24.34000000      27.47400000      27.97400000 
H      23.08700000      25.51000000      25.36100000 
H      23.16600000      25.69500000      27.06200000 
N      25.85700000      27.19200000      19.66300000 
C      24.86000000      26.77100000      18.75700000 
C      24.88500000      25.37800000      18.46000000 
O      23.79700000      24.62400000      18.44400000 
H      26.57300000      27.74700000      19.35700000 
H      23.83900000      26.99300000      19.19400000 
H      24.92500000      27.36900000      17.84300000 
N      26.07200000      24.79200000      18.14000000 
C      26.08500000      23.40100000      17.76600000 
C      25.61700000      22.53800000      18.96100000 
O      24.89500000      21.57200000      18.72900000 
C      27.50800000      23.01100000      17.41900000 
H      26.87600000      25.31500000      18.13200000 
H      25.43200000      23.19800000      16.96500000 
H      27.57300000      21.95900000      17.16500000 
H      27.85100000      23.59500000      16.55600000 
H      28.20800000      23.22500000      18.22200000 
N      26.05300000      22.86700000      20.12200000 
C      25.63700000      22.13200000      21.30600000 
C      24.14600000      22.21300000      21.44700000 
O      23.42200000      21.21500000      21.60700000 
C      26.31700000      22.65200000      22.54600000 
C      25.62900000      22.17700000      23.80000000 
C      27.79100000      22.22900000      22.56300000 
H      26.69000000      23.70200000      20.28700000 
H      25.85400000      21.10300000      21.16800000 
H      26.28500000      23.81000000      22.47700000 
H      26.20400000      22.58600000      24.68200000 
H      24.61800000      22.61000000      23.88200000 
H      25.60800000      21.13900000      23.83900000 
H      28.30300000      22.67500000      23.33300000 
H      27.83600000      21.16600000      22.61800000 
H      28.29000000      22.55100000      21.58600000 
N      23.61500000      23.42000000      21.34000000 
C      22.17000000      23.60900000      21.53000000 
C      21.44100000      22.86600000      20.48700000 
O      20.35700000      22.33600000      20.70500000 
C      21.86300000      25.09300000      21.41200000 
C      22.27500000      25.84100000      22.56400000 
O      22.85800000      25.30400000      23.57100000 
N      22.09900000      27.17200000      22.61800000 
H      24.19200000      24.28400000      21.25200000 
H      21.88600000      23.24900000      22.43100000 
H      22.29600000      25.51500000      20.54300000 
H      20.79700000      25.21900000      21.34800000 
H      22.35900000      27.74100000      23.37200000 
H      21.68500000      27.59800000      21.80200000 
N      21.96400000      22.95000000      19.22100000 
C      21.26600000      22.32200000      18.11800000 
C      21.12800000      20.85200000      18.29600000 
O      20.19800000      20.24200000      17.97400000 
C      21.92900000      22.65900000      16.83300000 
C      21.86400000      24.12800000      16.38900000 
O      20.90300000      24.80100000      16.94900000 
O      22.53700000      24.54900000      15.51800000 
H      22.77600000      23.46100000      19.03400000 
H      20.27400000      22.68400000      18.08300000 
H      23.01900000      22.47300000      16.91300000 
H      21.60200000      22.10300000      16.05300000 
N      22.36300000      20.24200000      18.70300000 
C      22.28000000      18.79500000      18.92700000 
C      21.34100000      18.45500000      19.95700000 
O      20.60600000      17.43700000      19.95800000 
C      23.69100000      18.20900000      19.12200000 
C      24.00000000      17.10500000      18.06800000 
C      25.43700000      16.65700000      18.38900000 
C      23.08800000      15.95300000      18.13600000 
H      23.13800000      20.74000000      18.90100000 
H      21.82800000      18.35800000      17.96400000 
H      24.37800000      19.00700000      19.07900000 
H      23.72300000      17.81700000      20.10000000 
H      24.00600000      17.58000000      17.13100000 
H      25.72000000      15.90500000      17.67600000 
H      26.14100000      17.41800000      18.37900000 
H      25.47100000      16.15800000      19.36900000 
H      23.34300000      15.23000000      17.46900000 
H      23.02600000      15.53200000      19.15800000 
H      22.03200000      16.27400000      17.90300000 
N      21.30300000      19.23400000      21.10500000 
C      20.43600000      18.98700000      22.13200000 
C      19.03600000      19.15600000      21.70800000 
O      18.14200000      18.23700000      22.09500000 
C      20.82100000      19.95100000      23.30200000 
C      19.96400000      19.91300000      24.54800000 
C      20.76700000      20.46600000      25.68600000 
C      18.68700000      20.76400000      24.35300000 
H      22.00100000      20.04100000      21.10800000 
H      20.58900000      17.98300000      22.53200000 
H      21.83300000      19.77900000      23.52900000 
H      20.81400000      20.99400000      22.85300000 
H      19.68400000      18.91900000      24.69500000 
H      20.18300000      20.48500000      26.59500000 
H      21.63100000      19.80300000      25.87900000 
H      21.13400000      21.41600000      25.48600000 
H      18.13200000      20.77200000      25.29100000 
H      18.97700000      21.81100000      24.14000000 
H      18.04600000      20.40000000      23.59400000 
N      18.77900000      20.12700000      20.95400000 
C      17.36500000      20.28900000      20.43600000 
C      16.98300000      19.14300000      19.55100000 
O      15.88900000      18.71500000      19.59200000 
C      17.28800000      21.67200000      19.69400000 
H      19.41500000      20.84700000      20.72900000 
H      16.68500000      20.32200000      21.26000000 
H      16.35600000      21.76500000      19.27700000 
H      17.53000000      22.43700000      20.32600000 
H      18.02200000      21.65200000      18.88400000 
N      17.96300000      18.81700000      18.67800000 
C      17.64700000      17.64400000      17.80900000 
C      17.35700000      16.47000000      18.57500000 
O      16.37000000      15.67800000      18.33900000 
C      18.94300000      17.42100000      16.96200000 
C      18.97100000      16.05100000      16.30100000 
C      17.80800000      15.83100000      15.38300000 
C      17.72500000      14.26100000      15.12800000 
N      16.52700000      14.02600000      14.21900000 
H      18.75400000      19.20500000      18.59200000 
H      16.83200000      17.84500000      17.19900000 
H      19.00700000      18.21800000      16.22000000 
H      19.78600000      17.49900000      17.62500000 
H      19.90100000      15.95000000      15.76000000 
H      18.98500000      15.25200000      17.12000000 
H      16.85300000      16.10000000      15.85700000 
H      17.91800000      16.34100000      14.44900000 
H      18.59400000      13.92500000      14.61000000 
H      17.54800000      13.76400000      16.03100000 
H      16.18600000      13.03700000      14.50600000 
H      15.80900000      14.62500000      14.35300000 
H      16.79700000      14.01000000      13.24900000 
N      18.15900000      16.13900000      19.67000000 
C      17.92500000      15.02500000      20.43600000 
C      16.56800000      15.09000000      21.02900000 
O      15.83900000      14.06700000      21.00200000 
C      18.99200000      15.12800000      21.61900000 
C      18.51400000      14.30500000      22.85600000 
C      17.97700000      14.67600000      23.93400000 
C      18.59600000      12.77400000      22.87400000 
N      17.66500000      13.70200000      24.68700000 
C      17.99800000      12.51300000      24.14000000 
C      19.04000000      11.84900000      22.07200000 
C      17.88100000      11.17800000      24.60700000 
C      18.95100000      10.47700000      22.53300000 
C      18.39300000      10.18400000      23.74300000 
H      18.97600000      16.73900000      19.78200000 
H      18.04700000      14.10300000      19.93500000 
H      19.93400000      14.77400000      21.25700000 
H      19.05900000      16.10200000      21.93300000 
H      17.76400000      15.75900000      24.21600000 
H      17.20700000      13.77000000      25.70300000 
H      19.48600000      12.05100000      21.12400000 
H      17.46400000      10.94500000      25.51400000 
H      19.32500000       9.70400000      21.87700000 
H      18.32600000       9.17200000      24.04800000 
N      16.12600000      16.15900000      21.53600000 
C      14.92000000      16.20900000      22.22300000 
C      13.76200000      16.10300000      21.22600000 
O      12.79400000      15.47700000      21.46800000 
C      14.80200000      17.59800000      22.97000000 
C      13.40300000      17.76600000      23.57200000 
N      13.00400000      16.85500000      24.48700000 
C      12.35700000      18.55100000      23.32600000 
C      11.64900000      17.14500000      24.86400000 
N      11.32400000      18.19100000      24.05500000 
H      16.82300000      17.05700000      21.63000000 
H      14.77500000      15.43800000      22.93000000 
H      15.53800000      17.62800000      23.71900000 
H      14.92800000      18.43600000      22.25300000 
H      13.43400000      16.13500000      24.90600000 
H      12.35600000      19.40600000      22.57100000 
H      11.07600000      16.65600000      25.48400000 
N      13.91200000      16.77100000      20.09300000 
C      12.79700000      16.79800000      19.13900000 
C      12.64900000      15.37200000      18.58000000 
O      11.43700000      14.97600000      18.29800000 
C      13.32500000      17.69900000      17.95000000 
C      12.19100000      17.73300000      16.89300000 
C      10.86200000      18.42700000      17.26300000 
O       9.88800000      18.09200000      16.68900000 
N      10.93800000      19.31500000      18.16400000 
H      14.72500000      17.33600000      19.89200000 
H      11.94100000      17.07700000      19.52000000 
H      13.49700000      18.62600000      18.35200000 
H      14.20900000      17.23300000      17.48400000 
H      12.63200000      18.36800000      16.01600000 
H      11.98800000      16.83800000      16.44700000 
H      11.77000000      19.62800000      18.66000000 
H      10.14800000      19.78400000      18.43500000 
N      24.44200000      16.06100000      31.47300000 
C      24.98400000      16.31200000      30.12000000 
C      26.52200000      16.14700000      30.16900000 
O      27.07100000      16.54900000      31.12400000 
C      24.62800000      17.72900000      29.68500000 
C      24.52400000      17.87400000      28.17300000 
C      25.47300000      18.70200000      27.53900000 
C      23.54700000      17.25900000      27.51300000 
C      25.31300000      18.90800000      26.13900000 
C      23.37700000      17.49000000      26.08600000 
C      24.31600000      18.35100000      25.43200000 
O      24.07900000      18.43400000      24.16900000 
H      24.34100000      16.83600000      31.99600000 
H      24.53400000      15.56400000      29.41800000 
H      23.64500000      17.93500000      30.11900000 
H      25.31000000      18.40000000      30.09200000 
H      26.22500000      19.18100000      28.04200000 
H      22.80800000      16.64700000      28.00300000 
H      26.01400000      19.52000000      25.63100000 
H      22.60300000      17.00000000      25.56900000 
H      24.75600000      19.03900000      23.69500000 
H      28.99832712      14.97817388      22.22110382 
H      27.56335291      12.27455656      24.57513733 
H      25.29484178      10.59633667      12.66232595 
H      28.36959220      13.11217942      16.24689575 
H      28.88965205      15.75353927      14.72960007 
H      30.84481210      18.60287512      13.04896716 
H      28.86067332      26.97488588      21.63434777 
H      13.45850111      14.79953189      18.44966115 
H      23.62952804      15.67982460      31.40521632 
H      27.00286642      15.71326619      29.40700100 
