 297 
 
N               177.7157881388       64.4830765894      115.9737928706
C               177.5676994068       64.4874616010      117.4275928829
C               176.0901984468       64.2350500073      117.8108627734
O               175.3614664720       65.1075013516      118.2624288834
C               178.0740667907       65.8099068232      118.0170928371
C               178.4918497052       65.6936082527      119.4837564098
C               179.7259833165       64.8292204651      119.7618663609
C               181.0417081110       65.3532766200      119.1825110068
N               181.3631437622       64.7649901684      117.8492320686
H               178.6559500251       64.6067096215      115.6136424099
H               178.1491038771       63.6392524242      117.8078078979
H               178.8872678727       66.1964820214      117.4012039663
H               177.2570442357       66.5328047587      117.9383930390
H               178.6628692703       66.7019562278      119.8622119441
H               177.6449951407       65.2843692800      120.0376113140
H               179.8291156186       64.7884645912      120.8453977799
H               179.5493684898       63.8120682744      119.4183999493
H               181.0090848708       66.4397646466      119.1031690444
H               181.8550692106       65.0749965198      119.8526330413
H               182.3312501610       64.9960155389      117.5921623472
H               181.2553585409       63.7199730204      117.8834263215
H               180.7565198429       65.1223061971      117.0970346752
N               175.7107823894       62.9551812701      117.6713285732
C               174.3995467530       62.4748305966      118.0469662542
C               174.4801796817       61.8897182044      119.4625578274
O               175.5289495873       61.8777004813      120.0844917581
C               173.8379049770       61.5053969608      116.9955078516
C               174.6112010384       60.2270109532      116.8427853868
C               174.2178455660       59.0801636221      117.5233628804
C               175.6907265646       60.1439196994      115.9709904618
C               174.8570146050       57.8752126696      117.3135762650
C               176.3433143500       58.9426257940      115.7579678848
C               175.9130623993       57.7947284036      116.4110180392
O               176.4839666307       56.5809353619      116.1958841883
H               176.3815414167       62.2394078940      117.4336466002
H               173.7356420037       63.3445273182      118.0910606808
H               172.8040222176       61.2829326008      117.2630856227
H               173.8187972648       62.0523435142      116.0503468398
H               173.3807257151       59.1251023826      118.2048055065
H               176.0000794627       61.0251190539      115.4261568260
H               174.5175418658       56.9832170781      117.8158556067
H               177.1682898844       58.8909143223      115.0616405971
H               177.1947012813       56.6553204768      115.5448316220
N               173.3294972232       61.3988309001      119.9492243061
C               173.2061113732       61.0292312033      121.3426395482
C               172.6702321108       59.5932753492      121.4565703063
O               171.4998431415       59.3439902162      121.6934974171
C               172.3156700598       62.0443398392      122.0850310286
O               172.9188855778       63.3113821912      121.8905455911
C               172.2132415195       61.6925898261      123.5676134800
H               172.4567074260       61.4631712913      119.4389409156
H               174.2196940747       61.0858281166      121.7569055704
H               171.3175370674       62.0394830896      121.6189561114
H               172.3897591709       63.9751488899      122.3487660754
H               171.6257920063       62.4456774232      124.0855515533
H               171.7344868502       60.7260677129      123.6769322063
H               173.2097286109       61.6642487251      123.9998638148
N               173.6457977035       58.6755499337      121.3454890555
C               173.4827168188       57.2321969944      121.4084181842
C               172.7952190383       56.6343490749      120.1774228118
O               171.9609462729       57.2361788999      119.5244024716
C               172.6660169058       56.8015430906      122.6368488228
H               174.5531322230       59.0180763039      121.0601684749
H               174.4780599414       56.7884614864      121.4840098868
H               172.5095438481       55.7263894679      122.5925221598
H               173.2195829330       57.0688786985      123.5315255790
H               171.7018294173       57.3018775227      122.6204987698
N               173.1992920243       55.3684111675      119.9171949557
C               172.3568938219       54.4178342842      119.2002228637
C               171.9130195685       53.3829243368      120.2325465702
O               171.2638354201       53.7697482583      121.2097866136
C               172.9360277723       53.8512601653      117.9195500411
C               171.7898608184       53.1377381649      117.1051794412
O               170.7238287157       52.9154267807      117.7185831460
O               172.0453412274       52.8926782518      115.9130289004
H               173.8908048043       54.9641327675      120.5361281988
H               171.4454237002       54.9575852802      118.9175812110
H               173.3205930806       54.6483011285      117.2829367969
H               173.7194675687       53.1106073256      118.0724743595
N               172.4306201528       52.1556171314      120.1566173301
C               171.9035365715       51.0661004691      120.9737394631
C               172.7114984850       51.0178459912      122.2947388995
O               173.4089096815       50.0732732279      122.6232787840
C               171.9827095922       49.7207209506      120.2500114158
C               172.0328899467       49.7871339648      118.6928071001
O               171.1899389894       49.1251994155      118.0686238812
O               172.9790505345       50.4572256689      118.2045558934
H               172.7650183324       51.8015402979      119.2523848467
H               170.8566817779       51.3010955153      121.2159846334
H               172.9047980410       49.2158237475      120.5541749953
H               171.1364245191       49.0939014457      120.5297640792
N               172.5512478986       52.1165491332      123.0458970323
C               173.3804559299       52.3740648935      124.2006831983
C               174.7364717240       52.9652167421      123.7894027522
O               175.2479025329       52.6680298811      122.7171788969
H               172.0136368686       52.8746659322      122.6280867825
H               172.8369837698       53.0190087203      124.8887980010
H               173.5796546983       51.4049306501      124.6737146564
N               175.2846827502       53.7579781572      124.7200867972
C               176.5221700262       54.5329985858      124.6462796383
C               176.4357623920       55.5653532034      123.5127415289
O               175.7465982070       55.3962116174      122.5224238678
C               177.8040011688       53.6607218407      124.4786000758
O               177.9284016156       53.1505946586      123.1798963039
C               177.8306132876       52.5574216561      125.5378402835
H               174.7786063938       53.8555855764      125.5883951924
H               176.6142784644       55.0575678497      125.5989411513
H               178.6740647063       54.3142142989      124.6086250925
H               177.0993462313       52.6840218967      122.9761220544
H               178.7474622508       51.9845745457      125.4294625308
H               177.8019478863       52.9838025665      126.5354662986
H               176.9905128481       51.8782573319      125.4098655770
N               177.1150026424       56.7061727238      123.7463478720
C               177.1680811230       57.7217566924      122.7184389703
C               178.3207234226       57.4406977267      121.7427911026
O               179.3003972256       56.7955442515      122.0783393391
C               177.2641422772       59.1459810964      123.2858018893
O               176.7239890754       59.9915967063      122.2947818039
H               177.8472414984       56.7275503640      124.4413047501
H               176.2279028551       57.6636726901      122.1632959516
H               176.6741926259       59.2065917648      124.2098193432
H               178.3071555724       59.3965883533      123.5099368521
H               176.9665674916       60.9091597128      122.4648680666
N               178.1220240987       57.9469864088      120.5211748072
C               179.0268696165       57.7494678599      119.4120640374
C               178.9971731943       58.9995315032      118.5333271986
O               178.1425843602       59.8626364302      118.6281875063
C               178.6014480359       56.5355887828      118.5652060063
C               178.8299256556       55.1887337058      119.2697581006
C               177.5235355440       54.4525681660      119.5777860983
C               177.8380360037       53.0373549321      120.0448891536
N               176.5920365747       52.2574666750      120.2796482894
H               177.3606637347       58.5931001543      120.3484763559
H               180.0328331986       57.5847534385      119.8138827643
H               177.5453820095       56.6478338363      118.3213446119
H               179.1593575650       56.5520898095      117.6293801212
H               179.4394752588       54.5532314174      118.6282118663
H               179.3767031995       55.3392069032      120.1995585476
H               176.9703751871       54.9825554598      120.3546424606
H               176.9064441295       54.4175499233      118.6769906021
H               178.4256577672       52.5229142932      119.2839933125
H               178.4016423772       53.0738865849      120.9786795309
H               176.0435187477       52.6387775991      121.0780782658
H               175.9931416342       52.2664773596      119.4447276988
H               176.8114332948       51.2781761847      120.4995777317
N               180.0181107889       59.0673916243      117.6612694421
C               180.1557786328       60.1035720349      116.6582685486
C               180.3996508433       59.4161050312      115.3087073560
O               180.9974638682       58.3540549232      115.2507009516
C               181.3375306746       61.0277336046      117.0639251307
O               180.8795012600       62.0124977680      117.9719464705
C               181.9816129516       61.7407110062      115.8857788579
H               180.6545948200       58.2884303198      117.5463529523
H               179.2274308946       60.6837967901      116.6368587789
H               182.0927922170       60.3995904816      117.5540436639
H               180.4846381995       61.5868211091      118.7437123666
H               182.7998992461       62.3590164443      116.2411047550
H               182.3851850949       61.0153340405      115.1861487470
H               181.2552806278       62.3604094810      115.3701841199
N               174.8393495129       55.5954064855      110.3789962995
C               174.7161663919       55.1584543651      111.7560913931
C               174.0764865387       53.7692892240      111.6973688472
O               172.9913556121       53.5870335305      111.1625825538
C               173.8510674239       56.1248168921      112.5960621674
C               174.4355698519       57.5405019682      112.5215561944
C               173.7531841101       55.6215470517      114.0337611997
C               173.6462986601       58.5734989186      113.3196076828
H               174.0324798043       55.4451865253      109.7815733777
H               175.7273217712       55.1182412946      112.1717785068
H               172.8538792884       56.1351593221      112.1470593621
H               175.4679876380       57.5230697229      112.8745980621
H               174.4544562757       57.8463031323      111.4725709830
H               173.0943588900       56.2640883313      114.6118217258
H               173.3442046671       54.6142039849      114.0770742131
H               174.7305125145       55.6224540271      114.5080556788
H               174.0021090527       59.5742080263      113.0838912102
H               172.5871681151       58.5233756296      113.0814094895
H               173.7589022915       58.4251026458      114.3896013426
N               174.7879267524       52.7713564799      112.2370974101
C               174.3301317366       51.3967153111      112.1617012723
C               174.3158561998       50.9656040055      110.6881524328
O               175.3480327347       50.7626613188      110.0706725452
H               175.7106817647       52.9502778255      112.5935085526
H               175.0283028637       50.7688868382      112.7129516712
H               173.3362864675       51.3276128486      112.6119936231
N               172.5313137433       65.6104916249      117.7042463943
C               172.0434657307       65.4696773744      119.0560337661
C               170.8110357827       64.5809357481      119.2090091855
O               170.1706371011       64.5943341366      120.2551539852
H               173.5352724610       65.5386088046      117.5785653879
H               172.8449412952       65.0491498306      119.6685624904
H               171.7725492386       66.4468403050      119.4742081105
N               170.4995011851       63.7878729562      118.1844857004
C               169.2957956052       62.9892017843      118.2283850938
C               169.5486126708       61.7765362893      119.1179208721
O               170.6035635901       61.1567899468      119.0896890842
C               168.8723589893       62.4948744311      116.8410045443
C               167.5964998011       61.7290578330      116.9548288837
N               166.3910142843       62.3474735238      117.1303577748
C               167.4170671033       60.3718539443      116.9901888059
C               165.5125621711       61.3876465243      117.2543600727
N               166.0812135114       60.1659107856      117.1775670982
H               171.0652058284       63.7467271660      117.3439283094
H               168.4980610259       63.6037439713      118.6609641873
H               168.7347706414       63.3511069937      116.1805861697
H               169.6528267014       61.8479104089      116.4373012423
H               168.1110462320       59.5655445217      116.8884602386
H               164.4668209420       61.5430777418      117.4241165023
H               165.6304105793       59.2624174161      117.2658133662
N               168.5453060179       61.4737992566      119.9500982669
C               168.6163705415       60.3816215247      120.8967796768
C               167.8886276256       59.1639535060      120.3173183040
O               166.6809685942       59.0028398993      120.4531188086
C               167.9939499168       60.8169386178      122.2228713681
C               168.2666840667       59.7884372966      123.2999939074
O               168.2412042231       58.5795148348      123.0824489690
N               168.5105760833       60.2825204677      124.5122828435
H               167.6548075753       61.9367683744      119.8385229931
H               169.6761372792       60.1341343215      121.0263864389
H               168.3869643474       61.7959290879      122.4940962079
H               166.9107399539       60.8916704581      122.0831546840
H               168.6510187912       59.6596140659      125.2933664265
H               168.5209617314       61.2740152715      124.6783974864
N               168.6816693427       58.3156386131      119.6551248160
C               168.1818151434       57.1230313541      119.0099762255
C               167.8069989055       56.0197464090      120.0092386755
O               167.2854007563       54.9852259398      119.6134903606
C               169.2242061178       56.5542007032      118.0404710940
C               169.3744880312       57.3520511325      116.7788108946
C               170.4021446082       58.2804009665      116.6540792653
C               168.4975591294       57.1697580057      115.7150940803
C               170.5490457711       59.0203887186      115.4931535843
C               168.6498864090       57.9050258447      114.5528278327
C               169.6700065685       58.8357551623      114.4399184954
H               169.6763756101       58.4886297757      119.5934142357
H               167.2549305716       57.3627750756      118.4667478445
H               170.1800213488       56.5338949912      118.5652501921
H               168.9375115777       55.5268423183      117.7971604815
H               171.0929870855       58.4167326285      117.4727205841
H               167.6933718526       56.4495553378      115.7981567622
H               171.3534035298       59.7374471731      115.4180064154
H               167.9632902366       57.7419343895      113.7363229510
H               169.7730284081       59.4110896819      113.5328817807
N               168.0998861828       56.2320477765      121.2965794307
C               167.6277414099       55.3053204791      122.3113787402
C               166.1354757582       55.5818238125      122.5626191019
O               165.2707941067       54.7220026096      122.4731070664
C               168.4637268137       55.4394213687      123.5856689833
C               168.1813852763       54.2670341968      124.5316693730
C               168.6522913758       54.4794622197      125.9733289198
C               170.1495058374       54.7590489013      126.1105412491
N               170.4286660398       56.2263400814      126.1043135458
H               168.4182351357       57.1394523500      121.6202431014
H               167.7054683149       54.2955896650      121.8919540327
H               169.5069896930       55.4371344404      123.2637448975
H               168.1999537379       56.3940491537      124.0426459855
H               167.1052563799       54.0855415671      124.5442568363
H               168.6424609520       53.3693435471      124.1166541990
H               168.0708481202       55.2831114342      126.4245670069
H               168.4152176721       53.5677883175      126.5196493433
H               170.5132339968       54.3533161751      127.0547337091
H               170.6794824204       54.2860424476      125.2838117299
H               171.4343471715       56.4134839024      126.2329656196
H               170.1217471778       56.6414096588      125.2110660888
H               169.9090409122       56.6702818324      126.8778343280
N               165.8755895784       56.8495806152      122.9219942211
C               164.5225636696       57.3098889791      123.1606843677
C               163.6181178094       57.1747579419      121.9301880558
O               162.4666386204       56.7766467386      122.0255493209
C               164.5445628930       58.7683809903      123.6028274143
H               166.6093696979       57.5500858391      122.8567604907
H               164.0722109092       56.6712119890      123.9308677258
H               163.5307533988       59.1051637353      123.7989136197
H               165.1346143552       58.8735826254      124.5078258637
H               164.9707623996       59.3806735835      122.8109940068
N               164.0980968252       55.5534921290      118.5060208980
C               164.9692535262       54.7237418318      117.6907812641
C               164.6719671858       54.8036684785      116.1996210148
O               165.5748746703       54.8983401383      115.3717631343
C               164.7577347011       53.3057197498      118.2284776267
C               163.3548764184       53.3473294504      118.8260396307
C               163.2645914831       54.7593314139      119.3949636638
H               166.0077509730       55.0482822338      117.8175030148
H               164.8693398325       52.5604728568      117.4441948155
H               165.5015504089       53.1231957384      119.0035321138
H               162.5995373078       53.2110770153      118.0519515406
H               163.2159791030       52.5942909110      119.5967139888
H               162.2367988849       55.1263342877      119.4015517826
H               163.6664720456       54.7952819386      120.4137789971
H               177.4286883478       63.6960382688      115.6449397240
H               180.0674934601       59.8383077401      114.4652523510
H               174.9986757208       56.4809402240      110.3578975444
H               173.4454031659       50.8445957728      110.2110062043
H               172.1710066418       64.9685867215      117.1864270362
H               163.9671539148       57.4147243895      121.0243238821
H               164.5926233565       56.1532993890      118.9595346913
H               163.7259591260       54.7794744495      115.8763820943
