 480 
 
N                45.1217017086       48.7370204588       64.9277013005
C                45.1091718942       47.5311446397       65.7300884179
C                44.2109530658       47.8227120712       66.9299101851
O                44.3902367945       48.8414968505       67.6051054952
C                46.5296746684       47.1852747393       66.1862912501
C                46.6220176335       45.8774690761       66.9814605623
C                46.0991080526       44.6972693707       66.1646288255
C                48.0789237254       45.6274254921       67.3765696200
H                45.5602589887       49.5470443919       65.3524046551
H                44.6669208802       46.7395668685       65.1227325499
H                47.1624920310       47.1256526407       65.2989531466
H                46.8915791016       48.0178038193       66.7947523618
H                46.0180671354       45.9791625939       67.8908017775
H                46.3786121649       43.7666486827       66.6486065455
H                45.0156992819       44.7160075787       66.0845822140
H                46.5281422816       44.7275515273       65.1666808024
H                48.1589146719       44.7396705225       67.9988319574
H                48.6869455278       45.4888114510       66.4863906116
H                48.4723713378       46.4714423346       67.9362718573
N                53.5379411426       43.3753073507       74.2897975877
C                54.7055189423       44.0212369346       73.7326226787
C                54.3536603098       44.3474306083       72.2763453967
O                53.8722036025       43.4885631062       71.5425532519
C                55.9109357349       43.0694920441       73.7878063678
C                56.2728043107       42.7569438182       75.2102098118
C                55.7038056621       41.6860852214       75.8862253921
C                57.1686240489       43.5764815020       75.8868249926
C                56.0486790463       41.4231147616       77.2026779776
C                57.5281513924       43.3180367176       77.1918056395
C                56.9603084274       42.2390158322       77.8663727277
O                57.3386896181       42.0125457659       79.1471871708
H                53.2107279654       42.5660485621       73.7675660309
H                54.9205794617       44.9325689612       74.2956954730
H                55.6335037544       42.1647671968       73.2471283505
H                56.7425490096       43.5520218605       73.2754162665
H                54.9753906056       41.0684928382       75.3822058714
H                57.5730959209       44.4397724524       75.3842991880
H                55.5954544289       40.5985913884       77.7316270421
H                58.2182351138       43.9632513723       77.7123104280
H                56.7433625628       41.3676752116       79.5730276248
N                54.5604651592       45.6148235617       71.9158244834
C                54.1456995443       46.1817054945       70.6443550892
C                55.3060379464       47.0623588460       70.1725918498
O                55.5166377589       48.1563603129       70.6768744453
C                52.8605248563       47.0219587956       70.8262726202
C                51.6921197870       46.1806373238       71.3747799524
C                52.4702474980       47.6802605769       69.5065704418
C                51.0736182562       46.7906255139       72.6277715411
H                55.0658710770       46.2300489770       72.5395504360
H                53.9719933609       45.3597754282       69.9443163609
H                53.1007510436       47.8071638969       71.5491657605
H                50.9209299029       46.0989363090       70.6070250984
H                52.0365203476       45.1711970883       71.5997899553
H                51.6251679551       48.3447057750       69.6631016361
H                53.2934317187       48.2566255736       69.0952819686
H                52.1874837841       46.9282156296       68.7748458100
H                50.2275775543       46.1930856137       72.9589919598
H                51.8001663748       46.8303324423       73.4375440888
H                50.7223307312       47.8013903964       72.4299535545
N                56.0579386603       46.5469703247       69.1924184433
C                57.2504446631       47.2126562381       68.7118558172
C                57.2910169214       47.1188926500       67.1897775604
O                57.0953525330       46.0395905629       66.6323633739
C                58.5223588723       46.5560738002       69.2947138470
O                58.4320581953       46.6616078383       70.6969674822
C                59.7725773669       47.2470444468       68.7487643643
H                55.8877043177       45.6068626063       68.8521960907
H                57.1974454814       48.2533188386       69.0457756915
H                58.5239960719       45.4916455361       69.0010447639
H                59.1941925234       46.2216624849       71.0931781477
H                60.6650476417       46.8572199612       69.2321260441
H                59.8589837229       47.0809590636       67.6780954152
H                59.7155160858       48.3180063245       68.9269571334
N                57.5414105400       48.2454504103       66.5286475057
C                57.5943762953       48.2666267037       65.0825299713
C                58.8080116733       49.0439924987       64.5946849443
O                59.4789663450       49.7480906664       65.3391223698
C                56.2891226451       48.8590180365       64.5065162448
C                56.0573898816       50.2817122340       64.8811512917
C                56.3471460056       51.3906397443       64.1386413559
C                55.4192247896       50.7438106393       66.0733693505
N                55.9326135180       52.5161208771       64.7956026247
C                55.3468639187       52.1546028316       65.9743230830
C                54.8822207315       50.1041715132       67.1904126267
C                54.7514650221       52.9263349575       66.9647183355
C                54.2919525371       50.8752550900       68.1654156789
C                54.2299009783       52.2671396957       68.0555633099
H                57.7137820555       49.1234999813       67.0094757922
H                57.6967799103       47.2290000905       64.7431417020
H                56.3177256843       48.7516039509       63.4239371922
H                55.4713028395       48.2418681496       64.8848936593
H                56.8200938057       51.4397687277       63.1769337235
H                56.0021202238       53.4557958342       64.4451575442
H                54.9269076438       49.0258979538       67.2848787857
H                54.6875796251       53.9996891182       66.8873165558
H                53.8716201295       50.3991541059       69.0389353712
H                53.7559014305       52.8308504731       68.8443574405
N                57.0922610158       46.3243016240       59.2918614446
C                57.1410810216       45.3589156596       60.3741177080
C                56.5976222292       45.9601316839       61.6796446014
O                56.8426950594       47.0934913955       62.0477988057
C                58.5543623516       44.8263926171       60.6582090344
C                59.1985475989       44.2781544764       59.3933515576
O                58.5714601192       44.0396691500       58.3730415119
N                60.5273794527       44.1364795587       59.4718867442
H                56.4672606964       46.0980488230       58.5349011851
H                56.5174355467       44.5166745580       60.0608264477
H                59.1825541689       45.6086950519       61.0910582387
H                58.4959222328       44.0020789712       61.3753348858
H                61.0112131822       43.6561229226       58.7293251209
H                61.0122292567       44.2794131215       60.3419556528
N                55.8376135317       45.0946281078       62.3605153353
C                55.2392597723       45.2858718178       63.6708925428
C                55.1842003174       43.8720496400       64.2579525121
O                54.6879515245       42.9482255209       63.6257965722
C                53.8475151376       45.9310655374       63.5308120555
C                52.9195184717       45.7637047623       64.7411652268
C                53.5275452288       46.2715034411       66.0455982025
C                51.6081680168       46.5058420182       64.4797806829
H                55.6816712961       44.1741817346       61.9731166045
H                55.8996007316       45.9178122317       64.2672016226
H                53.9977059202       46.9896398404       63.3132261343
H                53.3663578509       45.4793067194       62.6600422985
H                52.7087636618       44.6932245364       64.8445836418
H                52.8262062127       46.1034026369       66.8584374413
H                54.4479403579       45.7535568762       66.2945454000
H                53.7274857413       47.3392227129       65.9851104723
H                50.9233566371       46.3596883211       65.3112547256
H                51.7996643730       47.5718714382       64.3801898403
H                51.1431946913       46.1521002347       63.5634047587
N                55.7523880092       43.7556592466       65.4574952405
C                55.8541639842       42.5135773983       66.1873182424
C                55.0267940699       42.6614690357       67.4736122190
O                55.2371221617       43.5834214559       68.2522291888
C                57.3151978691       42.2430986199       66.5563238471
O                58.0641462401       42.1356962382       65.3678220515
H                56.2161573938       44.5535146330       65.8807795496
H                55.4687897644       41.7171651351       65.5438468397
H                57.6675621337       43.0781836971       67.1785708493
H                57.3623819061       41.3126916776       67.1398240012
H                58.9917090620       41.9943202557       65.5894566025
N                54.0696889238       41.7494489879       67.6230297879
C                53.1481806768       41.7301838049       68.7421111127
C                53.3339973399       40.4079799301       69.4932266303
O                53.2610880255       39.3263850639       68.9169112803
C                51.7031779879       41.8617051878       68.2264381366
C                50.7048246861       41.7051162053       69.3689767568
C                51.5208802864       43.2097578900       67.5361120449
H                53.9761090925       40.9980999853       66.9500399891
H                53.4072653091       42.5726480896       69.3884849861
H                51.5536210966       41.0564131056       67.4989851301
H                49.6978623040       41.8396744015       68.9857175031
H                50.7803697176       40.7146533517       69.8117697256
H                50.8906116266       42.4521442980       70.1379026950
H                50.5448253163       43.2565910020       67.0630894293
H                51.5980849562       44.0141368360       68.2648085633
H                52.2866965488       43.3570069414       66.7774158078
N                53.5776859791       40.5478494747       70.7976161619
C                53.7327042839       39.4417650176       71.7295287017
C                52.7353827438       39.7013457667       72.8680697221
O                52.7965012957       40.7166899464       73.5507738194
C                55.1919140267       39.3903889287       72.2179453046
C                55.4343394313       38.5473403371       73.4710620613
C                56.8646111848       38.7818030999       73.9725539313
C                57.0900169584       38.1507789417       75.3437890360
N                58.4861874782       38.3958719415       75.8081917767
H                53.6276411659       41.4837703460       71.1937056231
H                53.4669583379       38.5183089416       71.2071613125
H                55.8054287955       39.0156230147       71.3959456239
H                55.4975425800       40.4192276692       72.4180093558
H                54.7181681958       38.8390202550       74.2402751176
H                55.2776910800       37.4928301643       73.2369818318
H                57.5519084866       38.3663506355       73.2352490243
H                57.0314461090       39.8587363356       74.0387216993
H                56.4040647088       38.6072034409       76.0594609676
H                56.9157789585       37.0756506980       75.2811857107
H                58.6306263797       38.0062470977       76.7540198484
H                59.1591456958       37.9602338622       75.1581747098
H                58.6727970643       39.4112612899       75.8284463948
N                51.8220681779       38.7458585515       73.0301050763
C                50.7731334487       38.7501931753       74.0345437199
C                50.9597399234       37.4435436740       74.8069592433
O                50.7301083497       36.3438560838       74.3065936749
C                49.3829730996       38.8391645914       73.3766996001
C                49.1762321664       40.2461935525       72.7987718617
C                48.2959582364       38.4921995202       74.3924600046
C                48.0836372370       40.2989973043       71.7367752826
H                51.7702797250       37.9753672045       72.3719744524
H                50.9359300009       39.6053721120       74.6974581173
H                49.3638907351       38.1027361463       72.5662504461
H                48.9215252087       40.9259989527       73.6147115337
H                50.1123698532       40.5903827657       72.3518435436
H                47.3146959825       38.6185415538       73.9457952131
H                48.3839013843       37.4598050673       74.7256434657
H                48.3625607988       39.1490660241       75.2567112466
H                47.9891837071       41.3119836071       71.3544638181
H                48.3317606362       39.6374225936       70.9087364625
H                47.1206426012       40.0002601022       72.1437812084
N                51.4938418262       37.5978608237       76.0203183827
C                51.7160455922       36.4762391935       76.9084673381
C                50.8634847926       36.6555782090       78.1630013377
O                50.6027325951       37.7599059316       78.6245163263
C                53.2118068308       36.2985708891       77.2162283254
C                53.8615325564       37.4346047975       78.0127878969
C                55.2650979606       36.9763164149       78.4114867813
N                55.9814951686       37.9874262698       79.1751037067
C                57.2377723567       37.8269799714       79.5913878683
N                58.0246751080       36.8870987006       79.0392522038
N                57.7589147093       38.7058116657       80.4326421650
H                51.5259658543       38.5236744477       76.4404262235
H                51.3595761252       35.5757306460       76.3959278410
H                53.3122901845       35.3609392404       77.7630720148
H                53.7223935895       36.1877507042       76.2578063521
H                53.9016670210       38.3359991762       77.4017933125
H                53.2685266884       37.6468896545       78.9040995190
H                55.1620287855       36.0736630339       79.0197042485
H                55.8213882153       36.7349085890       77.5021936909
H                55.4241858950       38.6776902795       79.6701765185
H                57.5990958286       36.0656325859       78.6329035006
H                58.9332968936       36.7348605249       79.4571993375
H                57.1710969644       39.4409151707       80.8088150706
H                58.7207949192       38.6533055137       80.7277139926
N                53.1560455346       32.4289323733       79.4499695154
C                52.8210769745       31.5401055806       78.3452441140
C                52.5942004605       32.4633466919       77.1443262037
O                51.7503210543       33.3534652313       77.2317148548
C                51.5317108293       30.7635449952       78.6779887174
C                51.4011863976       29.4048041652       77.9937022950
C                50.0568042657       28.7665610265       78.3722588282
N                49.9105251727       28.6327218127       79.8120615017
C                50.4456949599       27.6874770764       80.5872556253
N                50.3966538586       27.8310127594       81.9039929955
N                51.0611135287       26.6222959594       80.0704516387
H                52.5100878135       33.2024638800       79.5692048316
H                53.6575424051       30.8522451167       78.2076255104
H                51.5258798848       30.6066724036       79.7585472348
H                50.6695634912       31.3899892480       78.4355252509
H                51.4409326323       29.5165586732       76.9102321580
H                52.2171236721       28.7579531548       78.3193636926
H                49.2398126787       29.4054654543       78.0321980640
H                49.9384181848       27.7924917332       77.8945825378
H                49.4886091092       29.4183519112       80.2905842700
H                49.9285384504       28.6326153034       82.2924862492
H                50.6855870987       27.0945509546       82.5756587221
H                51.0266728932       26.4342334393       79.0815428999
H                51.3035598373       25.8670372712       80.6923666966
N                53.3601156838       32.3272817592       76.0565905280
C                53.0593994545       33.1432238451       74.8929050896
C                51.7684423247       32.5862364292       74.2704443503
O                51.6863926995       31.3983522128       73.9816487151
C                54.2163850101       33.1434313016       73.8890637374
O                55.3636185624       33.5666506738       74.5880516213
C                53.8786685145       34.0795256788       72.7271539452
H                54.0005200300       31.5584212261       75.9448984576
H                52.8958702031       34.1653916305       75.2438437621
H                54.3514062043       32.1198000353       73.5008793685
H                56.1081831188       33.5810749201       73.9740961044
H                54.6926930303       34.1119474657       72.0019056512
H                52.9812165957       33.7363369510       72.2143798878
H                53.7029746654       35.0883680568       73.0959477642
N                50.7549439046       33.4530797978       74.1635656050
C                49.4249471467       33.0229069993       73.7836348269
C                49.0693880536       33.5000520107       72.3758090953
O                48.5342059034       32.7521860506       71.5696611789
C                48.3850231379       33.4430436650       74.8410488321
C                46.9702395009       33.1005106965       74.3803839165
C                48.6941901880       32.7352635646       76.1601779864
H                50.8716016430       34.4336527322       74.4070312855
H                49.4448700471       31.9274102218       73.7280391908
H                48.4575903328       34.5257010754       74.9887871585
H                46.2677577496       33.2768497339       75.1916755565
H                46.6702576329       33.6982081391       73.5226250324
H                46.9059123661       32.0507621818       74.1028761279
H                47.9850511671       33.0387554133       76.9281144231
H                48.6049119116       31.6580703252       76.0292749899
H                49.6999940621       32.9715656726       76.5004462201
N                49.4086014745       34.7628031868       72.0721441910
C                49.3424481325       35.2028469464       70.6928030393
C                50.6374326237       35.9406340371       70.3691692198
O                51.1528084032       36.7180920149       71.1602299359
C                48.0904969565       36.0685587888       70.4254005157
C                47.5202483247       35.8755933468       69.0467896493
C                47.2853530205       36.9592273463       68.2142128490
C                47.1637883506       34.6065288807       68.5966844525
C                46.7005025348       36.7930485766       66.9735764389
C                46.5966375524       34.4250818997       67.3515458734
C                46.3482495515       35.5237188090       66.5300350632
O                45.7785992874       35.3192492832       65.3195388439
H                49.8794511889       35.3755872630       72.7332475162
H                49.2783308953       34.2961733223       70.0818713826
H                47.3353112911       35.7631035074       71.1540685249
H                48.3188776331       37.1216492173       70.5943373043
H                47.5593635777       37.9507202819       68.5395346242
H                47.3256779546       33.7456433314       69.2311215219
H                46.4862207543       37.6418979890       66.3433396463
H                46.3249663392       33.4394422221       67.0047215386
H                45.5973343629       36.1854534762       64.8751000406
N                51.1489939717       35.6793941114       69.1652307222
C                52.4138815892       36.2120613174       68.6971188113
C                52.3866725830       36.1230907429       67.1791987999
O                52.1250556113       35.0661803938       66.6198295085
C                53.5952592292       35.3609023392       69.1908946257
C                54.9211820322       35.7828329421       68.5726313191
C                56.0843516400       34.9002423029       69.1369082758
O                56.2023676702       34.8535112008       70.3753471157
O                56.7989176860       34.3140955383       68.2999125791
H                50.7447717288       34.9680197333       68.5718021458
H                52.5235143225       37.2446091411       69.0368323486
H                53.6775792798       35.4316929906       70.2756095625
H                53.4039859985       34.3163951375       68.9274052693
H                54.9110582644       35.6601453181       67.4869137363
H                55.1312736520       36.8305552058       68.8020088464
N                52.6140699656       37.2712646413       66.5342312176
C                52.8125354662       37.2940139579       65.0999005778
C                53.9500642283       38.2710265374       64.8021440140
O                54.1770066887       39.2357426510       65.5202704217
C                51.5298196185       37.6922006825       64.3448197988
C                50.3810928240       36.7298810365       64.6730677563
C                49.2214334500       36.8007404940       63.6808398282
C                48.5628577969       38.1771530944       63.6593329819
N                47.3904143761       38.1692175965       62.7402599197
H                52.9250524501       38.0921154415       67.0448186737
H                53.1022048545       36.2804161160       64.7988921685
H                51.2730828757       38.7111564418       64.6302186974
H                51.7551999748       37.6693136493       63.2765931660
H                50.7760666729       35.7134519154       64.6784138509
H                50.0158180946       36.9344524798       65.6801149067
H                49.5994013889       36.5492701430       62.6882594560
H                48.4884298226       36.0465320955       63.9724410720
H                48.2323514779       38.4360350027       64.6659471056
H                49.2835312363       38.9193937550       63.3168632097
H                47.2941571218       39.0581924589       62.2386512399
H                47.5009455634       37.4129947601       62.0559932654
H                46.4480719107       37.9957543976       63.2846386136
N                54.6644279354       37.9614660645       63.7138946402
C                55.7196234803       38.7795581973       63.1710056310
C                55.2332863573       39.4057033024       61.8565767381
O                54.2432581577       38.9719703405       61.2893251392
C                56.9677367204       37.9218169555       62.8710538221
O                56.5817952046       36.9906809569       61.8795684016
C                57.4798114506       37.2236210639       64.1298800174
H                54.3809810183       37.2115278424       63.0984863484
H                55.9693861254       39.5654071703       63.8856759419
H                57.7484694345       38.5924068936       62.4732063871
H                57.3264873743       36.4080412646       61.6875859908
H                58.4072315918       36.6972101856       63.9198280831
H                57.6626494697       37.9532910099       64.9117701316
H                56.7470284606       36.5026143641       64.4843779570
N                55.9330889679       40.4780189479       61.4624962015
C                55.8967133102       40.9584676219       60.0858771375
C                54.4983136158       40.7335836345       59.4952483429
O                54.2805114735       40.0602452162       58.4998554414
C                56.9999488793       40.2801806044       59.2807648194
C                58.4230339249       40.4069189522       59.9177259555
O                58.5165830138       40.8819738141       61.0738176182
O                59.3663238391       39.9984371455       59.2219306412
H                56.8740041355       40.6319811666       61.8373798380
H                56.0945785560       42.0404631916       60.1090914304
H                56.7795957023       39.2132136690       59.1879216599
H                57.0546011992       40.7017386328       58.2761810703
N                53.5422565117       41.4274911602       60.1355987828
C                52.1325200157       41.1255924651       59.9425653088
C                51.5716838889       42.0934035535       58.8897806620
O                51.5842671938       43.3193924661       59.0223190715
C                51.4166995943       41.0500125708       61.3054216890
C                51.4466183986       42.2782270510       62.2320293993
C                50.3404507567       43.2809126219       61.9041523038
C                51.2865350162       41.8153127021       63.6827354637
H                53.7967617006       41.9199678943       60.9794123856
H                52.1111240818       40.1175414931       59.5162424879
H                50.3804659287       40.7615904746       61.1293676565
H                51.9248950908       40.2282344181       61.8191924509
H                52.4208056224       42.7756362079       62.1566016421
H                50.4128269354       44.1338260470       62.5749041080
H                50.4430441998       43.6433539787       60.8864676694
H                49.3660861193       42.8153492384       62.0321311148
H                51.3292073843       42.6796492345       64.3392392164
H                50.3337736298       41.3122828412       63.8262027942
H                52.0959708698       41.1446920894       63.9656078276
N                51.0491630986       41.5661964937       57.7796001755
C                50.6325869809       42.4907935141       56.7315669001
C                49.8363394863       43.6667568627       57.2962779995
O                48.8372866186       43.4952905409       57.9888990745
C                49.7804761950       41.6089286888       55.8257083870
C                50.5268942085       40.2778624070       55.8707340751
C                51.0323654353       40.1871166987       57.3161596246
H                51.5181026429       42.8757018251       56.2103164373
H                48.7872314257       41.5144765894       56.2634405377
H                49.6895071596       42.0222681999       54.8238881836
H                49.9010226511       39.4288899804       55.6076351653
H                51.3681199755       40.3020242103       55.1776876862
H                50.3566805590       39.5937361155       57.9382130703
H                52.0343331885       39.7504585328       57.3570304361
N                42.2163833672       45.4372566381       62.1524394511
C                42.5346046178       44.1895883210       62.8165849074
C                42.1747271476       44.3002240545       64.2981740167
O                42.7757696513       45.0590438005       65.0513759937
C                44.0197249075       43.8400774009       62.6542263796
C                44.3197578049       42.4713057223       63.2644284745
C                45.7885926615       42.0594512490       63.0988310422
N                46.2534335473       42.0921405982       61.7235593715
C                46.0305430934       41.1605797811       60.7974443869
N                45.4830045747       39.9821956660       61.1129309825
N                46.5055131412       41.3492142918       59.5673609068
H                42.5523634055       46.2965307243       62.5694152286
H                41.9085968404       43.4217035615       62.3511583348
H                44.2342499975       43.8455340138       61.5842698383
H                44.6090108259       44.6190217611       63.1427894431
H                44.0979563007       42.5032901574       64.3333583732
H                43.6601514391       41.7230398734       62.8197284736
H                46.4174054258       42.7409261020       63.6710646799
H                45.9131031254       41.0555425021       63.5048571204
H                46.6231089263       42.9794399548       61.4103143115
H                44.8783526358       39.8379609340       61.9346522102
H                45.2680058502       39.3528797342       60.3513516811
H                47.0342557967       42.1734718837       59.3149231003
H                46.3300942607       40.6744030061       58.8379400005
N                42.1162288289       42.0177932895       67.5201565582
C                42.4978853182       40.8311433861       68.2646050195
C                41.7780992166       40.9412643188       69.6106064166
O                41.9577236660       41.8709965499       70.3897025610
C                44.0261733574       40.7272469900       68.3846219532
C                44.6243098403       40.4199446986       67.0050141301
C                44.3836153548       39.6553546609       69.4111617731
C                46.1185863896       40.7105002737       66.9303175411
H                42.3482796424       42.9036607261       67.9595169266
H                42.1039889103       39.9600430373       67.7334112724
H                44.3920169551       41.6973469314       68.7343568168
H                44.4281077715       39.3703080988       66.7728354630
H                44.1028449161       41.0273692806       66.2610588560
H                45.4594487378       39.5864740151       69.5354312327
H                43.9423458008       39.9029226097       70.3747001698
H                43.9991431884       38.6869876364       69.0966363832
H                46.4819261774       40.5229211693       65.9247999525
H                46.3026131977       41.7504300391       67.1874188248
H                46.6637365499       40.0805861622       67.6247441780
N                41.0379336676       33.0809589032       71.4884791979
C                41.6082651974       34.1626893346       70.7153122068
C                40.9147868644       34.2273898436       69.3559449378
O                40.6929116000       33.2167308003       68.6995403712
C                43.1174530611       33.9305951356       70.4802528487
C                43.7430320335       35.1522279654       69.8119092588
C                43.8332984421       33.6263265269       71.7930749582
H                41.1768045211       32.1566461965       71.1056697546
H                41.4365065113       35.0912151423       71.2667591174
H                43.2169178979       33.0727244815       69.8055981582
H                44.8105295259       34.9978665071       69.6713790126
H                43.2990679120       35.3408385113       68.8370385331
H                43.5941120527       36.0399640190       70.4226935023
H                44.8835401136       33.4270375170       71.5982409453
H                43.7532309886       34.4763046226       72.4659353012
H                43.4034292959       32.7591418765       72.2869023043
N                40.9247569417       36.8887290597       65.7103000182
C                41.6749901145       37.8275958515       64.8888368134
C                40.7718342153       38.2099443353       63.7100995084
O                40.6697073902       37.5055786367       62.7139764828
C                42.9530284676       37.1274972932       64.4376369208
C                44.0173511743       38.0232240521       63.7958795110
O                43.7142577196       38.9515579147       63.0416203856
O                45.2040016402       37.6916144868       64.0767215580
H                40.5356853844       36.1001304659       65.2145386627
H                41.8932567898       38.7102804444       65.4953066007
H                43.3971562170       36.6280897072       65.3013677891
H                42.6820505426       36.3667466852       63.6992713937
H                45.5681698533       48.5834186445       64.1614946192
H                43.4761252207       47.1884589191       67.1702245152
H                53.7214858931       43.0900851639       75.1234399743
H                59.0832554165       48.9905643507       63.6347962451
H                56.8234296810       47.1212828790       59.6120966589
H                50.4970334101       35.8550190229       78.6371514973
H                53.1569896887       31.9635606872       80.2203124925
H                50.1255660625       44.6045798084       57.1043506428
H                42.5602474089       45.4310975757       61.3207426393
H                41.4329142228       43.7456984356       64.6752879550
H                42.5285803352       42.0161268701       66.7201793971
H                41.1272670917       40.2348614679       69.8888375389
H                41.4036748694       33.0740545626       72.3107843137
H                40.6299724292       35.1097848464       68.9814321922
H                41.4628313011       36.5505097533       66.3475469754
H                40.2428501823       39.0580467099       63.7400704135
