 540 
 
N                52.2983044370       24.3263798414       37.8468639826
C                50.9421092712       24.0802879580       38.3063518601
C                50.6987877077       24.7649259759       39.6509898536
O                49.7184263046       25.4735204938       39.8566787919
C                50.7554714922       22.5593360288       38.3573435324
C                49.3109159956       22.0333145985       38.3707824614
C                48.5645800911       22.4105991855       39.6503921216
C                48.5303655694       22.4576950865       37.1231953211
H                52.8745600517       23.5259732441       37.6077053999
H                50.2443462672       24.5406345238       37.5974212321
H                51.2627976745       22.1823743457       37.4665185227
H                51.2859965393       22.1942696319       39.2375739022
H                49.3930991153       20.9427782021       38.3671433406
H                47.6283241648       21.8601087800       39.7163075890
H                49.1619976249       22.1910842964       40.5351987722
H                48.3316167750       23.4717782665       39.6646297205
H                47.6280449994       21.8593598860       37.0205207657
H                48.2255814181       23.4978229100       37.2066845852
H                49.1287045065       22.3485312233       36.2210956690
N                33.4389108633       28.8786021704       26.7533108174
C                34.2037875008       28.1498605325       25.7479245439
C                34.1722102278       26.6743285551       26.1850539626
O                35.0892462857       26.1629825794       26.8079931221
C                35.6693821467       28.5621471857       25.6930285818
C                36.0119917820       29.8818124278       24.9999949992
C                35.7100433656       29.8280268294       23.5042470335
C                35.3064057536       31.0697926622       25.6471029847
H                33.9714245018       29.3032656835       27.4973284319
H                33.7150937894       28.2709320896       24.7782446750
H                36.0581424153       28.5732343770       26.7159968581
H                36.1695054995       27.7537247956       25.1539400617
H                37.0935272434       30.0178245850       25.1223716290
H                36.2159791634       30.6501987669       23.0017057890
H                36.0687880679       28.8987313446       23.0678179342
H                34.6421379899       29.9207481144       23.3263920082
H                35.6123088893       31.9939513102       25.1623995969
H                34.2289455003       30.9815625450       25.5473455536
H                35.5568896650       31.1504514132       26.7043059421
N                33.0392632004       26.0214215144       25.8912145330
C                32.8429397424       24.7192476357       26.4975102071
C                33.9403163379       23.7418424778       26.0588321742
O                34.4186319886       22.9553337657       26.8701437889
C                31.4158836560       24.2239278209       26.2770154632
C                30.4192575272       25.1143413286       26.9728608937
C                29.3544880161       25.6580237230       26.2671798571
C                30.5364301031       25.4016065691       28.3294300572
C                28.3930101810       26.4109628853       26.9113410814
C                29.5917395984       26.1666844026       28.9831076842
C                28.4901031859       26.6477316912       28.2779429710
O                27.5436100439       27.3494961459       28.9337161387
H                32.2252046500       26.5491315595       25.5830323010
H                33.0218150403       24.8129965692       27.5788566770
H                31.1879476406       24.1759729702       25.2124306279
H                31.3603796113       23.2079500554       26.6744479827
H                29.2707947787       25.4808463870       25.2074118085
H                31.3769152100       25.0206717838       28.8923440827
H                27.5578443632       26.8057151449       26.3559857676
H                29.7051722708       26.3732771177       30.0359283181
H                26.7922141719       27.5031608888       28.3418156915
N                34.3588854233       23.8159976302       24.7912663028
C                35.4834974615       23.0475042063       24.2973032447
C                36.4948022570       24.0260199781       23.6923415375
O                36.2871720062       25.2221215263       23.5975666363
C                34.8334500198       22.2421938869       23.1667745549
C                33.9268696131       23.2982431166       22.5173021438
C                33.6510572420       24.3333500513       23.6317578574
H                35.9417339228       22.4445863514       25.0854640499
H                35.5514131181       21.8055574619       22.4774243349
H                34.2427618992       21.4334437482       23.5993871574
H                34.4342931488       23.7690948751       21.6768670491
H                33.0060920065       22.8517972318       22.1532756477
H                34.0694792660       25.3073768688       23.3642342128
H                32.5913378202       24.4340746827       23.8410991747
N                37.6165969041       23.4525645445       23.2231660446
C                38.4964236203       24.1560657509       22.3097052270
C                38.5690829094       25.6601968761       22.5829703963
O                38.5282504067       26.4881794116       21.6926246837
H                37.7724952178       22.4688961105       23.3845208814
H                39.5102924926       23.7576304412       22.4111272186
H                38.1665094671       24.0185274854       21.2729764231
N                38.7974759767       25.9770869506       23.8720208985
C                39.2508694061       27.2940967548       24.2601947616
C                40.7621797692       27.3698415507       23.9978147250
O                41.3746739995       26.3823608751       23.5970119975
C                38.9550000703       27.5177992373       25.7385657742
H                39.0221076201       25.2315086903       24.5148194603
H                38.7313759286       28.0203527261       23.6291614708
H                38.9218748205       28.5776294030       25.9703280829
H                37.9888065465       27.0885614336       25.9900198859
H                39.7220818893       27.0446105324       26.3477212134
N                41.3676040668       28.5315770768       24.2311666735
C                42.8138827816       28.6200113159       24.3977302159
C                43.0025379735       29.5043302788       25.6339391097
O                42.5754271682       30.6531342102       25.6484466572
C                43.5462782194       29.2290339281       23.1967842852
C                45.0175825020       28.7915765982       23.1461821962
C                45.1467721233       27.3160183248       22.7682414810
C                45.7638416596       29.6658451076       22.1393262123
H                40.8467580780       29.3441105970       24.5279961920
H                43.1774452843       27.6076271741       24.5873353417
H                43.0562779533       28.9280916041       22.2709366268
H                43.4940910695       30.3157450129       23.2848739636
H                45.4612204137       28.9490884539       24.1378140846
H                46.1972083430       27.0564386556       22.6756551616
H                44.7120838771       26.6732064022       23.5297967784
H                44.6548642261       27.1297673924       21.8167576013
H                46.8283377767       29.4437224189       22.1481846253
H                45.3834290285       29.5001363602       21.1345128462
H                45.6245455164       30.7111485121       22.3996733604
N                43.5702766198       28.8976141989       26.6732566594
C                43.7913722283       29.5116981385       27.9611689059
C                45.2968554969       29.6755170455       28.1816689588
O                46.1211406837       28.9239430595       27.6766747141
C                43.2294032744       28.6197833206       29.0828185021
C                41.7443128302       28.8359095489       29.3863571329
C                40.8957403226       28.7745580352       28.1237034090
C                41.2806792523       27.7535202102       30.3589465951
H                43.9117773579       27.9449799628       26.5602278501
H                43.3011481956       30.4913039426       27.9795084732
H                43.3676669934       27.5766516358       28.7890405930
H                43.8028210928       28.7944030486       29.9948837801
H                41.6197136576       29.8183780141       29.8462883086
H                39.8451712843       28.7205134435       28.3949849989
H                41.0359499121       29.6595692138       27.5109957343
H                41.1685091096       27.8968786581       27.5432914860
H                40.2460430140       27.9181709930       30.6518204400
H                41.3551619876       26.7784924128       29.8808618889
H                41.9012189819       27.7517881128       31.2503798069
N                48.0284783232       29.7954301535       31.3539093955
C                48.2285006894       29.3833966897       32.7291674231
C                49.3746423300       30.2351266060       33.2980166299
O                50.4947415144       30.2560356141       32.8247925547
C                48.4403965062       27.8608681834       32.8535441948
C                49.6347811134       27.3732739485       32.0390876952
C                48.5707178711       27.4729785956       34.3251950830
H                48.8006072339       29.6565888354       30.7164921114
H                47.3076170598       29.6476122921       33.2594240555
H                47.5290020965       27.3947640946       32.4576150553
H                49.7406917119       26.3000532252       32.1722198856
H                49.4765187764       27.5795025246       30.9825661284
H                50.5472320340       27.8719100585       32.3640400779
H                48.6126035444       26.3923006103       34.4105004235
H                49.4688512775       27.8970284131       34.7707595508
H                47.7140654908       27.8220348618       34.8962608165
N                44.3161832706       31.6758745810       35.7624094899
C                43.7176896298       30.3615939532       35.5726300053
C                43.5310488069       29.7058754810       36.9396397778
O                42.4608997411       29.1973280124       37.2643308706
C                44.5634316673       29.4819046964       34.6471470169
C                43.7579377426       28.3512599540       33.9816614361
C                44.6242686128       27.6619858265       32.9288950310
C                43.2406123790       27.3150436640       34.9761656674
H                45.0479068214       31.9868052423       35.1396119818
H                42.7096228931       30.4904214610       35.1552438735
H                44.9694530817       30.1176198911       33.8556171453
H                45.3973807291       29.0601964189       35.2123944232
H                42.8948505040       28.8086139814       33.4871152458
H                44.0371148191       26.9137882159       32.4032971324
H                44.9959994409       28.3883299661       32.2101970873
H                45.4663174126       27.1721648704       33.4114665985
H                42.7215668354       26.5239464625       34.4420363441
H                44.0636051933       26.8859389707       35.5432180777
H                42.5365357064       27.7543119919       35.6734268664
N                40.6778598254       30.5152283105       38.7178304990
C                39.5573040420       30.0497168505       37.9338007858
C                38.8825505653       31.1780552640       37.1413347531
O                37.6705792887       31.2284137929       36.9956283530
C                38.5482463630       29.2652697853       38.7789997749
C                38.9650640924       27.8293703568       39.0295817978
O                38.3198837634       26.8850823081       38.5949911612
N                40.0635185934       27.6567630177       39.7665683913
H                41.5715483367       30.1391136656       38.4113124679
H                39.9908754716       29.3817789769       37.1792754863
H                38.4294859830       29.7637499717       39.7407164400
H                37.5817713044       29.2700089479       38.2751837178
H                40.3958062745       26.7225822255       39.9506202628
H                40.6370670469       28.4224649912       40.0824742340
N                35.7645697350       16.5810582855       23.9721035676
C                36.5224660719       17.0884231164       22.8486007253
C                37.2890946853       15.9357816362       22.1815578391
O                37.6440764333       14.9542578789       22.8208326344
C                37.4761497704       18.1953651132       23.3568403733
C                38.7120418279       17.6153203430       24.0395024812
C                37.9044186614       19.1228509018       22.2282115748
H                36.2610407193       16.4996794951       24.8468257614
H                35.7975358355       17.5050477718       22.1410218531
H                36.9048906666       18.7682417244       24.0984737365
H                39.3098306474       18.4219799931       24.4576803487
H                38.4383342785       16.9375643146       24.8432016120
H                39.3252544149       17.0727359021       23.3225119979
H                38.4816274983       19.9452536703       22.6430656388
H                38.5308288399       18.5786374932       21.5239119094
H                37.0342077639       19.5231756402       21.7186909932
N                40.7513145559       14.5349491448       20.6668089686
C                42.1382296165       14.7904959576       20.9982198964
C                42.8387464231       15.5224540388       19.8469853229
O                42.6145376220       15.2872767766       18.6682734568
C                42.8893541358       13.5014976053       21.3122366903
H                40.5042844642       13.7377423791       20.0810257845
H                42.1190557984       15.4505540945       21.8734790217
H                43.9028624367       13.7499869425       21.6156142685
H                42.3842443183       12.9769410483       22.1176488566
H                42.8976571203       12.8694730154       20.4271988084
N                43.7959803552       16.3712783819       20.2615689562
C                44.5461890708       17.2036478762       19.3413551605
C                45.9456099588       16.6007114233       19.2007774613
O                46.6291546744       16.3196854102       20.1734658028
C                44.6117804644       18.6470686159       19.8551903410
C                45.4842540928       19.4782247807       18.9193686839
C                43.1978308160       19.2109352349       19.9592305824
H                43.8263790615       16.6373656954       21.2358052156
H                44.0232626462       17.1830263575       18.3769823852
H                45.0659812238       18.6341017327       20.8514937844
H                45.4654826682       20.5257497239       19.2077947037
H                46.5159348487       19.1351976293       18.9421150893
H                45.1187431494       19.4122746504       17.8952481235
H                43.2193417417       20.2405238192       20.3052051119
H                42.7096514976       19.1839756578       18.9840089367
H                42.5835260515       18.6280633933       20.6424271612
N                52.3661575821       28.7536214972       29.1131496093
C                51.9487119387       27.8051774486       28.0936308624
C                50.4219421670       27.8605135955       27.8753240073
O                49.6840779859       28.5499089361       28.5606215351
C                52.4764011667       26.4607185193       28.6039052800
C                52.4969714704       26.6244769932       30.1237459870
C                52.8924430774       28.0861720797       30.2941293171
H                52.3943708633       28.1055274787       27.1386458676
H                51.8245372644       25.6515486779       28.3025444171
H                53.4825388020       26.3108653647       28.2155475348
H                51.5031147936       26.4566114883       30.5396271647
H                53.2297124830       25.9836304297       30.6093415617
H                52.4998148194       28.5280950112       31.2072442834
H                53.9809741305       28.1863821999       30.3421598035
N                49.9986696066       27.1241528138       26.8261870549
C                48.6385004219       27.1607426567       26.3428806945
C                47.8875507401       25.8767392779       26.7185988349
O                48.4329295666       24.7890251978       26.8132132606
C                48.5695283102       27.4569616608       24.8268881197
C                49.5237770423       26.6348548553       23.9429675166
C                48.9360852373       26.4345133412       22.5454642756
C                50.8795424163       27.3300999073       23.7872296902
H                50.6092290338       26.4429588826       26.4021105196
H                48.1609149637       27.9903575057       26.8748973083
H                47.5392696091       27.2988456771       24.5053616481
H                48.7989273080       28.5133733077       24.6812581570
H                49.6571859067       25.6454492472       24.3872211131
H                49.6549194166       25.9151038533       21.9162570786
H                48.0244627428       25.8429065345       22.5720244590
H                48.7097915806       27.3931766308       22.0858630605
H                51.5544639974       26.6910110495       23.2210880809
H                50.7478023664       28.2653781956       23.2436077401
H                51.3326062211       27.5549477731       24.7485293679
N                46.5711304339       26.0710348502       26.8992744870
C                45.6594075386       25.1120499203       27.4936027046
C                44.3417157587       25.1694764556       26.7147545548
O                43.9965216616       26.2136893523       26.1699255350
C                45.4230746265       25.4656391601       28.9905249157
C                44.6003196061       24.3956628379       29.6961178456
C                46.7440628339       25.6592917213       29.7337871438
H                46.2178369119       27.0218858173       26.8639318353
H                46.0981420459       24.1161400969       27.4128020269
H                44.8803992835       26.4148755315       29.0254160567
H                44.3068710858       24.7298398335       30.6862086213
H                43.6925989964       24.1628215748       29.1511848190
H                45.1768219230       23.4824451640       29.8115653279
H                46.5374549194       25.7646646076       30.7952626042
H                47.4024845391       24.8039712616       29.6029694766
H                47.2688984563       26.5492475596       29.3963057517
N                43.5900291835       24.0654490051       26.6928677775
C                42.2720219157       24.0571583900       26.0827847821
C                41.2808959807       23.2992360146       26.9586491337
O                41.6153521045       22.3592215995       27.6648940186
C                42.2576644322       23.4904164344       24.6428768546
C                42.4745762750       22.0083542246       24.4939729529
C                43.5885669617       21.3692484988       25.0215615896
C                41.6056219886       21.2503448749       23.7145728369
C                43.8363091805       20.0306902783       24.7745820194
C                41.8603021494       19.9229275664       23.4303993730
C                42.9912348177       19.3012648238       23.9487242981
O                43.2577202483       18.0106735780       23.6035698917
H                43.8734238312       23.2179796270       27.1771128167
H                41.9632380878       25.1042714989       26.0127348448
H                41.3031527275       23.7541168508       24.1832307643
H                43.0233382703       24.0395217095       24.0869978648
H                44.2956316851       21.9182899907       25.6185249358
H                40.7233070585       21.7072590421       23.2923551393
H                44.7227993557       19.5674776184       25.1860655998
H                41.1992070519       19.3636221271       22.7896679399
H                44.0573595072       17.7181829484       24.0627712746
N                40.0186744688       23.7636118114       26.9417467409
C                39.0017841124       23.0704724381       27.7167718486
C                38.6695163577       21.7479679236       27.0150166227
O                38.6067819944       21.6457647384       25.8011219300
C                37.7633649594       23.9298855857       28.0227704300
C                38.2288377980       25.2448792821       28.6766120298
C                36.8137663665       23.1287371228       28.9122569555
C                37.1526887711       25.9581010963       29.4868989675
H                39.7316924170       24.4551676863       26.2651617712
H                39.4868437633       22.8152545248       28.6666705955
H                37.2233670639       24.1578739863       27.0963412076
H                39.0780660554       25.0406832018       29.3277584871
H                38.5738794258       25.9160998157       27.8929630262
H                35.9175495739       23.7053543202       29.1097820382
H                36.4905490175       22.2235667716       28.4069534289
H                37.2764853928       22.8494650144       29.8559630995
H                37.5268834120       26.9200192274       29.8281777268
H                36.2642027828       26.1172684999       28.8812898517
H                36.8873466022       25.3792754136       30.3667484142
N                38.5180820349       20.7320796358       27.8758513706
C                38.4061832130       19.3488819855       27.4883855532
C                36.9696422879       18.8213686934       27.5481458081
O                36.4743389840       18.2076057689       26.6170277202
C                39.3228371124       18.5354607710       28.4327526078
O                39.3319190037       17.1614371347       28.1602441737
H                38.5210515701       20.9214935507       28.8719771949
H                38.7418469497       19.2602602280       26.4500989617
H                40.3305079041       18.9578931180       28.3723499933
H                38.9543568387       18.6662924684       29.4563292284
H                40.1170016543       16.9496902574       27.6413843878
N                36.3189343964       19.0705904018       28.6906336136
C                35.0009957180       18.5378912092       28.9436217629
C                34.2994537927       19.3795271600       30.0191503367
O                34.9085210731       20.1592069830       30.7369801674
C                35.0722792642       17.0685829507       29.4016131217
O                35.4382997973       17.0257289412       30.7608728527
H                36.7283657393       19.6067666538       29.4452003395
H                34.4294954594       18.5619960610       28.0089313829
H                34.0935292728       16.6035886143       29.2347345660
H                35.8194099569       16.5560546137       28.7805626991
H                35.4617784358       16.1052469792       31.0481289238
N                32.9867737988       19.1486894765       30.0797289214
C                32.0349917070       19.8972541600       30.8803487252
C                30.8022319593       19.0149400526       31.0899048189
O                30.5098380894       18.1296222727       30.2901974015
C                31.6859488602       21.2264806342       30.1554429026
C                31.0196501652       20.9681232596       28.8072353436
C                30.8294461071       22.1502940059       31.0133617089
H                32.5736850612       18.4720691210       29.4480273069
H                32.4889710179       20.1465414771       31.8443395082
H                32.6496216585       21.7175948707       29.9784410267
H                30.7895480404       21.9157461789       28.3265109632
H                31.6843190417       20.4019032001       28.1587343463
H                30.0942009290       20.4110548712       28.9332706813
H                30.7951713243       23.1362174161       30.5561619385
H                29.8156082055       21.7693151148       31.1049652048
H                31.2534901363       22.2532363549       32.0064156284
N                33.9671101260       21.8143888170       35.0039786552
C                34.9174874325       22.1599904565       33.9712681666
C                36.2583916819       21.4755251204       34.2669445593
O                36.7640566030       21.5491146399       35.3767629228
C                35.2404607218       23.6732385541       34.0504849514
C                34.1504210798       24.6097582187       33.6117348415
C                34.2578794693       25.2426656746       32.3804774964
C                33.0880566569       24.9542915533       34.4407373036
C                33.3710406955       26.2281457017       32.0036533979
C                32.1822782703       25.9312606888       34.0714952311
C                32.3390944682       26.6004205051       32.8593473315
O                31.4753197961       27.5935171860       32.5340649447
H                34.3250557098       21.9293444814       35.9427632441
H                34.4988667772       21.8798721360       33.0018558411
H                35.4949631618       23.8840453254       35.0925346209
H                36.1276413830       23.8635416745       33.4433087573
H                35.0635806373       24.9820811361       31.7111611043
H                32.9736646535       24.4711251193       35.4002982738
H                33.4981643504       26.7440452096       31.0643397274
H                31.3719732134       26.2077257390       34.7300299867
H                31.7799278504       28.0229074533       31.7132353613
N                36.8821342965       20.8962616436       33.2297415693
C                38.2685878659       20.4956814161       33.3110199640
C                38.9591238296       20.7868855475       31.9847640042
O                38.3616951286       20.7958468961       30.9118434596
C                38.4770523879       19.0003971446       33.7226574636
O                39.8007368444       18.5996885163       33.4778586433
C                37.5556844783       18.0537868502       32.9685224258
H                36.4145623488       20.7676905440       32.3397951310
H                38.7420641735       21.1174275829       34.0839749346
H                38.2469657798       18.9250925583       34.7988706040
H                40.4197841789       19.1318251534       34.0093892226
H                37.7483886164       17.0408608076       33.3125667496
H                36.5174462050       18.3076361443       33.1531805846
H                37.7521248222       18.1070470166       31.9019079962
N                40.2552541808       21.0951629167       32.1063357799
C                41.0527660168       21.4176488992       30.9538220263
C                42.2410481112       20.4760056034       30.8005255334
O                42.7376809951       19.8613901882       31.7322489942
C                41.5835985111       22.8818487253       30.9887268288
O                42.6746974151       23.0200177841       31.8603673693
C                40.4683789957       23.8643339856       31.3249660600
H                40.7535923752       20.9139623184       32.9705603781
H                40.4078410167       21.3102741706       30.0779593170
H                41.9826135229       23.0787359072       29.9876741972
H                42.3270903041       23.1672216408       32.7499874068
H                40.7339925117       24.8590308913       30.9791279942
H                39.5366889455       23.5583081601       30.8610053157
H                40.3031340309       23.9216042074       32.3991517401
N                42.6734225250       20.4088630355       29.5379990004
C                43.8575300536       19.6910414306       29.1301692277
C                44.8608386226       20.7098885735       28.5909360922
O                44.4917308385       21.7069816468       27.9888812438
C                43.4890300871       18.6913336586       28.0158622398
O                42.4700176059       17.8137043536       28.4083769391
H                42.2756806119       21.0065940830       28.8193227201
H                44.2494318113       19.1589719689       30.0033406397
H                43.0922000355       19.2433302216       27.1587311836
H                44.3965444852       18.1512534871       27.7098895110
H                42.7102212404       17.3865183239       29.2407599417
N                46.1546877039       20.4852528679       28.8345046029
C                47.1409336032       21.4258604525       28.3443448380
C                47.4999837064       21.0625883569       26.8950480802
O                47.5693843489       19.8979006149       26.5161317522
C                48.3882291571       21.4482140300       29.2305503650
C                48.2076587781       22.1132815417       30.5765868435
C                47.0460151953       21.9784229631       31.3269235190
C                49.2539177855       22.8553999895       31.1152087855
C                46.9379568421       22.5595458111       32.5788302191
C                49.1562905133       23.4170713983       32.3761902738
C                47.9963458078       23.2697875539       33.1157353094
H                46.4900038121       19.6042592723       29.2207389936
H                46.6727836948       22.4145464330       28.3424622226
H                48.6956456117       20.4100474225       29.3780062218
H                49.1691423113       21.9711888542       28.6766728867
H                46.2057371393       21.4315759633       30.9341913004
H                50.1487064001       23.0160777361       30.5382502533
H                46.0183020275       22.4553432486       33.1318559907
H                49.9902233449       23.9678098872       32.7803016673
H                47.9116870949       23.7121888932       34.0947560439
N                47.7267791093       22.1108324075       26.0931877308
C                47.9885102158       21.9701102566       24.6742167170
C                49.4762934200       22.2004774541       24.3757621745
O                49.9088040435       23.2200940373       23.8757857167
C                47.1336782395       22.9435176807       23.8588894900
C                46.8025685995       22.4345537919       22.4482439913
C                48.0610826392       22.0698910619       21.6642504522
C                45.8182187004       21.2676294382       22.4755862418
H                47.7733883083       23.0503125026       26.4748745113
H                47.7413161832       20.9310872034       24.4299468044
H                46.2016156863       23.1264509364       24.3950236485
H                47.6899326989       23.8805081155       23.7781845909
H                46.3180061827       23.2656796690       21.9255021916
H                47.7908716996       21.7498996881       20.6617344145
H                48.7238217588       22.9289422659       21.6009195721
H                48.6118325416       21.2541628834       22.1281891620
H                45.6836402654       20.8686420934       21.4752900322
H                46.1695192309       20.4608274114       23.1141241485
H                44.8505492324       21.5941819844       22.8453922776
N                47.1085742459       18.4322728123       32.4303184326
C                45.6957115950       18.7216599915       32.5450323377
C                45.4696706646       19.1810151497       33.9916462879
O                46.3201585042       18.9947881420       34.8438812144
C                44.8714541991       17.4667506268       32.2253820802
H                47.5514078753       18.2993512571       33.3352965958
H                45.4261223778       19.5265876486       31.8538350765
H                43.8054464884       17.6643192416       32.2940384347
H                45.1067070195       17.1371878390       31.2144085986
H                45.1309304895       16.6605583100       32.9071655839
N                44.2969480614       19.7865582899       34.2224120376
C                43.8939113541       20.1679953383       35.5530873980
C                42.3844115120       20.0526313832       35.6930440413
O                41.6243621798       20.2770116665       34.7518055617
C                44.3304121364       21.6155946231       35.9170940575
O                44.0508215581       21.7607669660       37.2916612178
C                43.6298757665       22.6714618856       35.0686242887
H                43.6107903571       19.8762705610       33.4775728486
H                44.3980490151       19.5087329274       36.2718954051
H                45.4182473878       21.6647335413       35.7408768277
H                44.2243095809       22.6723013981       37.5586166436
H                44.0569439958       23.6543591390       35.2561415049
H                43.7579604168       22.4267389705       34.0187848055
H                42.5676590144       22.6978433290       35.3069542711
N                41.9575460159       19.6795350083       36.9008453971
C                40.5568351328       19.7286406862       37.2758977739
C                40.3502955492       21.0207307059       38.0775850561
O                41.1178592008       21.3469747870       38.9671857244
C                40.1362434500       18.5092733896       38.1109602592
C                39.6620166039       17.3635244978       37.2559129113
C                40.3833944630       16.9492139799       36.1427560408
C                38.4718012512       16.7144340288       37.5587389389
C                39.9119234343       15.9294794771       35.3357005092
C                38.0086413036       15.6807067036       36.7636812388
C                38.7245978370       15.2890242504       35.6455067946
H                42.6130857411       19.6948070961       37.6718167909
H                39.9711785356       19.7651136895       36.3536510108
H                40.9792506695       18.1973652389       38.7307960672
H                39.3312501161       18.8156005681       38.7814365045
H                41.3138063703       17.4345341245       35.8921865104
H                37.8987086381       17.0264728861       38.4193783690
H                40.4720212920       15.6449778603       34.4584283908
H                37.0844569769       15.1829046061       37.0146602395
H                38.3615741851       14.4875983645       35.0193541029
N                39.3114721918       21.7688119960       37.6842895760
C                39.0080972986       23.0386180662       38.3152471045
C                37.5881861891       22.9757796404       38.8751627427
O                37.1106594484       21.9015551014       39.2247933101
C                39.3272467585       24.1937663250       37.3630785400
C                38.4223052811       24.2289530777       36.1295206179
C                38.8720208829       25.3606340716       35.2248170486
O                39.5225700685       25.1837305941       34.2047741380
N                38.5118606209       26.5730361315       35.6633546467
H                38.6401438152       21.4285240981       37.0103953460
H                39.6860775699       23.0981308603       39.1794077192
H                39.2451387590       25.1386545765       37.8977882232
H                40.3641212522       24.0751236414       37.0394999906
H                38.4772471713       23.2870360149       35.5842144194
H                37.3872872201       24.4005455282       36.4227797405
H                38.0582692166       26.6989339319       36.5582295684
H                38.7869901288       27.3895733313       35.1441799154
N                36.9126735540       24.1245696988       39.0200476460
C                35.5867210975       24.0760528397       39.5941445611
C                34.7118443707       25.1375093556       38.9343123701
O                35.1326054547       25.8425322968       38.0324860034
C                35.6542539237       24.1633793194       41.1338255579
C                34.7458609391       23.1431604426       41.8141677046
O                33.8687200975       23.4696114301       42.5965780865
N                35.0009086294       21.8751345041       41.4726012971
H                37.2879166758       25.0327742034       38.7764021274
H                35.1694422184       23.0998266002       39.3146044310
H                36.6795158779       23.9347042290       41.4325759187
H                35.4241309005       25.1670079432       41.4936135130
H                34.4671928467       21.1337872749       41.8983367535
H                35.7606188087       21.6366035063       40.8457783954
H                52.2760966296       24.8285180932       37.1002958415
H                51.3502719792       24.6422549282       40.3996687287
H                32.9862510595       29.5490135971       26.3587888016
H                45.6400836171       30.4182513213       28.7565952610
H                47.3383407490       29.3383269392       31.0006859816
H                49.2184828127       30.8122381309       34.0996128455
H                43.6807408684       32.3088950605       35.6882608145
H                44.2890147974       29.6844503297       37.5915818919
H                40.7304862266       31.4120562298       38.6636996856
H                39.4376965753       31.8992215249       36.7269289958
H                35.0665660623       17.1256160568       24.1341150074
H                37.5072783602       15.9785487306       21.2065876551
H                40.2813772922       14.4019412662       21.4227639094
H                46.3257098465       16.4256862177       18.2925427709
H                52.9477082892       29.3409564286       28.7570085509
H                30.2179000327       19.1539941628       31.8894172666
H                33.2390988033       22.3383165554       34.9298218013
H                50.1458575565       21.4906075835       24.5943225410
H                47.2229964826       17.6786548407       31.9518129419
H                33.7685845551       25.2683953044       39.2394841063
