 256 
 
N               124.6674701981       61.5150916655      141.4390790795
C               124.6135163294       62.8405653378      140.8489670553
C               125.9324836792       63.5620699880      141.1335772227
O               126.5592416532       64.1169276169      140.2330748958
C               123.3988075973       63.6438922123      141.3408538913
C               122.1092521586       63.0151612749      140.7938614383
C               123.5422439192       65.1016910525      140.9046570550
C               120.8414487313       63.6916944175      141.3062989090
H               123.8871941212       61.1946851424      142.0077222817
H               124.5620249650       62.7433204633      139.7543619566
H               123.3950043091       63.5957707010      142.4330043268
H               122.1287606915       63.0580895278      139.7021799577
H               122.0814482327       61.9619392525      141.0764465439
H               122.7020673448       65.6916989419      141.2533711538
H               124.4527019035       65.5389932072      141.3057356160
H               123.5920028224       65.1721283314      139.8198334077
H               119.9696679393       63.1285026236      140.9840163200
H               120.8475216488       63.7298623848      142.3915908416
H               120.7498788674       64.7025013907      140.9196562335
N               126.3559883361       63.5509507466      142.3968866738
C               127.6566751208       64.1097708155      142.7385582197
C               128.6968160645       63.5468620358      141.7601069827
O               129.4405870703       64.2712069502      141.0942144325
C               128.0571073648       63.7681305861      144.1736879093
C               127.0976627397       64.3360351969      145.2207618759
C               127.5779001423       63.9730345006      146.6284502073
C               126.4979367718       64.2750985407      147.6625584112
N               126.9930046788       63.9652090204      149.0328360180
H               125.8040429591       63.0842733214      143.1114464680
H               127.6300894712       65.1988049202      142.5958827405
H               128.1008049295       62.6824733923      144.2637006338
H               129.0643538327       64.1574962078      144.3319481163
H               127.0384729538       65.4189139941      145.1138137984
H               126.1025508446       63.9233445138      145.0529476570
H               127.8337593699       62.9122192088      146.6458885554
H               128.4846899830       64.5388340491      146.8441477119
H               126.2228422219       65.3287474160      147.6087113159
H               125.6135240378       63.6691886696      147.4605964980
H               126.2655865564       64.1473036492      149.7396635261
H               127.2808339322       62.9762128549      149.0897180323
H               127.8150074922       64.5492766921      149.2472469500
N               128.6992566063       62.2222698889      141.6853150352
C               129.5988409734       61.4785649411      140.8404132792
C               129.5378085682       61.8880115443      139.3766367131
O               130.5396990786       61.7839249516      138.6645853848
H               128.0852613240       61.6835674091      142.2924930591
H               130.6308066533       61.6119375008      141.1841831319
H               129.3378809887       60.4222558631      140.9032729505
N               128.3628495904       62.3320243698      138.9515928997
C               128.0863267737       62.7633314934      137.6079388102
C               128.4368043689       64.2311744784      137.3942285472
O               128.6163972758       64.6503162898      136.2501304114
C               126.6197712479       62.5454681903      137.2254362643
C               126.1736528285       61.0788058818      137.2168232699
C               124.6697826490       61.0219969866      136.9529696256
C               126.9236493621       60.2511508916      136.1775682567
H               127.5651968746       62.2517864986      139.5756238749
H               128.7326914357       62.2107905760      136.9177532082
H               126.0094999872       63.1111035715      137.9325834355
H               126.4796799567       62.9769995991      136.2318722849
H               126.3776923941       60.6562574328      138.2037316858
H               124.3318392909       59.9908410155      136.9022030772
H               124.1183202568       61.5304292747      137.7397792225
H               124.4421135781       61.5072649847      136.0068573165
H               126.5217298167       59.2420304644      136.1369878709
H               126.8414875349       60.6826669972      135.1828571418
H               127.9807628535       60.1689956420      136.4170174463
N               128.5527769421       65.0119518789      138.4653815377
C               129.1365634539       66.3293830314      138.3148866556
C               130.6293483986       66.1312868806      138.0353701592
O               131.2253311735       66.7857339255      137.1875195283
C               128.9115253344       67.2634833227      139.5306708050
O               129.7387309424       66.9509186385      140.6144782565
C               127.4330002006       67.3076746638      139.9166667869
H               128.2513754710       64.6883958275      139.3782038537
H               128.7015383832       66.8016138201      137.4262298677
H               129.2279781804       68.2633996195      139.2108056872
H               129.5337707660       66.0481292108      140.9303084821
H               127.3118671485       67.9712749499      140.7683124011
H               126.8418061799       67.6856719501      139.0883962004
H               127.0662892351       66.3185876727      140.1765488159
N               131.2114204766       65.1819612677      138.7717683666
C               132.5677661597       64.7446397928      138.5064490094
C               132.6474781824       64.2045000139      137.0702508179
O               133.4813467646       64.6224042005      136.2758917299
C               133.0009707109       63.6799736608      139.5148333129
C               133.0423110982       64.2147552274      140.9547540302
C               133.0702859855       63.0345923927      141.9126745424
O               132.0588441832       62.5869319195      142.4316592541
N               134.2806142807       62.5056521162      142.1336634095
H               130.6843502209       64.6943411516      139.4891408958
H               133.2388213548       65.6111159004      138.5451451207
H               132.3032923420       62.8432344482      139.4540628767
H               133.9846015580       63.3159139491      139.2162219613
H               133.9187783867       64.8427079130      141.1012738946
H               132.1424553454       64.7933844060      141.1627226445
H               135.1005539766       62.8366071352      141.6560107704
H               134.3596987980       61.6842408165      142.7124172568
N               131.7216302555       63.2975998635      136.7363798819
C               131.7871058211       62.6864301744      135.4233559413
C               131.5503506568       63.7283531215      134.3313385669
O               132.0839863205       63.5936715977      133.2351022722
C               130.8116693894       61.5244010722      135.2808359347
H               131.1966011760       62.7881309745      137.4537780471
H               132.8100031222       62.3189825045      135.2577308410
H               131.1025846927       60.9204376422      134.4253179061
H               130.8534790399       60.9079561767      136.1749798451
H               129.8001356468       61.8868092123      135.1157282883
N               130.7682568201       64.7599682295      134.6522779201
C               130.5736344326       65.8828524174      133.7602310224
C               131.9193861125       66.5707493960      133.5327563180
O               132.3383681580       66.7864220699      132.4013324490
C               129.5626107386       66.8663924242      134.3556080175
O               129.4391076987       67.9676048277      133.4841586461
H               130.1175107584       64.6921602011      135.4351154794
H               130.2232598708       65.5541119293      132.7729178718
H               128.6089377464       66.3400264049      134.4739267450
H               129.9282022784       67.1934748693      135.3376094934
H               128.6720026480       68.4873650462      133.7575561080
N               132.5911976198       66.9079292308      134.6350930848
C               133.9440695323       67.4196920325      134.5164840090
C               134.7043450532       66.5485102877      133.5062884447
O               135.2574776888       67.0619311421      132.5387461593
C               134.6812043957       67.4575911614      135.8523141575
C               134.0266408998       68.4136944048      136.8527806254
C               134.8035377052       68.4304592975      138.1687531644
N               134.0001522023       69.0537694222      139.2093214081
C               134.3334796970       69.1288036302      140.4948230784
N               135.5022460749       68.6559623424      140.9198431406
N               133.4745938789       69.6510949190      141.3669254472
H               132.2295454087       66.6824430461      135.5574487685
H               133.9103120044       68.4264118001      134.0765641278
H               134.7062411668       66.4451802344      136.2551919895
H               135.7108200234       67.7546852784      135.6389116911
H               133.9886941471       69.4153560464      136.4242406821
H               133.0080833007       68.0707119834      137.0381385615
H               135.0367162336       67.3969377792      138.4453055368
H               135.7425420818       68.9748631940      138.0261780259
H               133.1088865363       69.4240895279      138.9133187814
H               136.1927575966       68.3325218265      140.2627562716
H               135.7801190075       68.7588660826      141.8826383280
H               132.5722759963       69.9846673746      141.0705582576
H               133.7064705636       69.7287705740      142.3439951216
N               134.6554466386       65.2355449942      133.7432336884
C               135.4256523795       64.2898065198      132.9615162106
C               135.0188345007       64.3312294678      131.4850362368
O               135.8520329931       64.2394823855      130.5829733883
C               135.1857025436       62.8583039028      133.4403288729
C               135.6157723144       62.5853109361      134.8766775618
O               136.1333522284       63.3986715540      135.6182319108
N               135.3339849528       61.3279494673      135.2733022180
H               134.3040371919       64.9130183785      134.6410846719
H               136.4916879538       64.5576177378      133.0218932793
H               134.1213188103       62.6334965196      133.3323173643
H               135.7416143229       62.1868797446      132.7828122707
H               135.6624703844       61.0172315261      136.1741670894
H               134.9512468476       60.6543716130      134.6310125511
N               133.7108127411       64.3749106607      131.2601201487
C               133.1564267008       64.3871420677      129.9225302102
C               133.6683590495       65.6224347116      129.1860637927
O               134.0464650737       65.5663649894      128.0191869264
C               131.6358359441       64.4070427306      129.9840557542
H               133.0468508359       64.3369455915      132.0328512251
H               133.5075766628       63.5081075598      129.3652728544
H               131.2325584075       64.3244062837      128.9790283814
H               131.2827288365       63.5716752154      130.5823742741
H               131.2969756417       65.3420820797      130.4230455295
N               133.6592574383       66.7242042895      129.9263971543
C               134.0886348205       68.0169062906      129.4517023439
C               135.5937833678       68.0041929164      129.1874482424
O               136.0616676565       68.5588367319      128.1917405357
C               133.6737599633       69.0778697261      130.4648399771
C               132.1476959345       69.0724919502      130.6143871839
O               131.4120133749       68.5324473183      129.8093174068
N               131.6934952314       69.7429359622      131.6808556869
H               133.2806610514       66.6870111193      130.8667978770
H               133.6017317986       68.2208846082      128.4881194692
H               134.1519537123       68.8559127627      131.4195715714
H               134.0000960703       70.0603382468      130.1208748187
H               130.7077141882       69.6992012330      131.8884880249
H               132.3212015900       70.1550410867      132.3479137722
N               136.3268433362       67.3163689792      130.0541362387
C               137.7311853338       67.0778982524      129.8117506158
C               137.8587166325       66.3851028252      128.4642323372
O               138.6986301283       66.7314695174      127.6403672707
C               138.3469640915       66.2146502623      130.8992033416
C               138.3787113301       66.9582307182      132.2834930408
O               138.6763357784       68.1644202719      132.2640258666
O               138.1286684071       66.2586701273      133.2808388374
H               135.9404150969       67.0153410975      130.9448723410
H               138.2774244783       68.0316746893      129.7666800199
H               137.7999858444       65.2788514591      131.0052762983
H               139.3828106554       65.9927631244      130.6314596471
N               136.9992408972       65.3857626575      128.2641873243
C               136.9331827284       64.6424729295      127.0270678318
C               136.7023062571       65.5646293758      125.8278467496
O               137.4432411058       65.5436679494      124.8489704318
H               136.4263619240       65.0710774413      129.0411925636
H               137.8659543693       64.0954509688      126.8518197524
H               136.0957098663       63.9489615836      127.1017789572
N               135.9741982504       56.7258190497      128.8242010216
C               135.5333526987       57.7919930715      129.7072262145
C               134.1888317130       57.4125537507      130.3337294779
O               133.1370155438       57.4310268823      129.7061917528
C               135.3851138349       59.1281152676      128.9616731251
C               136.6519564867       59.4947614086      128.1797417322
C               134.9722108658       60.2175793949      129.9516557949
C               137.8824249189       59.7725503940      129.0347803489
H               135.6070384649       56.7313516320      127.8801932267
H               136.2868158005       57.8709739790      130.4980756177
H               134.5840721825       58.9910026688      128.2290930382
H               136.8695012156       58.6879041555      127.4753357040
H               136.4316520061       60.3852028032      127.5888957252
H               134.9114138166       61.1768412010      129.4443021640
H               134.0008274166       59.9886211618      130.3835827963
H               135.6936889692       60.2989509751      130.7600615837
H               138.7146289476       60.0427831967      128.3893422542
H               137.7028273366       60.6004307622      129.7141227978
H               138.1698821488       58.8939049260      129.6080862493
N               134.2331567543       57.0827275335      131.6286655605
C               133.0270704081       56.7408240349      132.3646938272
C               132.1053309495       57.9758636854      132.3859062836
O               132.4992570528       59.0429761623      132.8330662472
C               133.3964365249       56.3409310120      133.7913187756
C               132.1808636111       55.8565908970      134.5735664811
C               131.6152485118       54.5485196706      134.0387300349
O               132.2511241078       53.7696770316      133.3386347495
N               130.3661318522       54.3133220951      134.4500181094
H               135.1192649595       56.9919455802      132.1021981606
H               132.5178908619       55.9104758773      131.8616251216
H               134.1296259420       55.5333462004      133.7478477421
H               133.8278817338       57.2079188693      134.2928711476
H               132.4681137625       55.6692693366      135.6104731630
H               131.3877933187       56.6052729449      134.5775786433
H               129.8646765873       55.0165641596      134.9759149951
H               129.8856157699       53.4618735049      134.1893575800
N               130.8760060260       57.7642669068      131.9073874427
C               129.8582707159       58.7866166170      131.8688991743
C               128.6079635793       58.4472570421      132.6810353196
O               127.9006888572       59.3437504265      133.1163839340
C               129.4344890190       59.1688940145      130.4308075421
C               130.6369103815       59.7139030695      129.6684323261
C               128.7927698539       58.0069271283      129.6772488405
H               130.6454935209       56.8567415014      131.5233185743
H               130.2985537212       59.6771102896      132.3339897471
H               128.6875591744       59.9621893870      130.5421679116
H               130.3322201798       60.0266110913      128.6747399103
H               131.0658160414       60.5629305625      130.1953343005
H               131.4012978590       58.9456954215      129.5706962981
H               128.4636431002       58.3445445296      128.6982259055
H               129.4991081961       57.1929640580      129.5295613380
H               127.9305563533       57.6199057052      130.2151077446
H               124.7383127956       60.8986565064      140.7871672596
H               135.9332903956       66.2038571756      125.8294039342
H               136.8692712307       56.7593125826      128.7363230199
H               128.3692633773       57.4920130655      132.8557669958
