291
Properties=species:S:1:pos:R:3 pbc="F F F"
N      54.81400000      47.60500000      48.80300000 
C      55.13300000      48.98900000      49.01400000 
C      55.70400000      49.65500000      47.78200000 
O      56.38300000      49.01500000      46.93200000 
C      56.13100000      49.13600000      50.19000000 
C      55.48000000      48.82400000      51.53100000 
C      54.79200000      49.81100000      52.19700000 
C      55.53800000      47.55300000      52.11300000 
C      54.15700000      49.57400000      53.41200000 
C      54.92100000      47.30600000      53.29300000 
C      54.21600000      48.25200000      53.95900000 
H      55.45300000      46.90900000      49.12100000 
H      54.21000000      49.50700000      49.27800000 
H      56.97000000      48.45900000      50.00900000 
H      56.50700000      50.13000000      50.19800000 
H      54.74800000      50.81400000      51.79000000 
H      56.09700000      46.76500000      51.59100000 
H      53.62900000      50.33500000      53.91800000 
H      54.98100000      46.29200000      53.73300000 
H      53.73400000      48.07800000      54.89800000 
N      55.45500000      50.97900000      47.67000000 
C      55.94300000      51.83000000      46.61600000 
C      56.49200000      53.08900000      47.26900000 
O      55.82100000      53.66100000      48.14300000 
C      54.76900000      52.25200000      45.65600000 
C      54.15800000      51.02600000      44.98500000 
C      55.23200000      53.33200000      44.65600000 
C      52.81000000      51.34600000      44.29200000 
H      54.88900000      51.40500000      48.36200000 
H      56.70500000      51.32000000      46.06100000 
H      54.01300000      52.70200000      46.30600000 
H      54.86100000      50.66000000      44.21300000 
H      54.01600000      50.25700000      45.67200000 
H      54.42100000      53.56600000      43.97100000 
H      55.52900000      54.23900000      45.12400000 
H      56.06700000      52.96100000      44.05500000 
H      52.37600000      50.42200000      43.89400000 
H      52.10900000      51.74200000      45.02600000 
H      52.89400000      52.04500000      43.49300000 
N      57.08800000      64.80700000      46.10400000 
C      55.71100000      64.40600000      45.94100000 
C      55.28200000      63.51200000      47.09800000 
O      56.12400000      62.90100000      47.77200000 
C      55.57300000      63.70300000      44.55900000 
C      55.90400000      64.65000000      43.36600000 
C      56.00700000      63.81900000      42.07900000 
C      54.89300000      65.78200000      43.21100000 
H      57.76200000      64.27800000      45.61500000 
H      55.09400000      65.30600000      45.96300000 
H      56.24700000      62.86700000      44.55500000 
H      54.58100000      63.32700000      44.43900000 
H      56.88800000      65.08300000      43.54500000 
H      56.30900000      64.46100000      41.24800000 
H      56.71400000      63.02000000      42.16400000 
H      55.03300000      63.39200000      41.81900000 
H      55.15300000      66.40200000      42.36900000 
H      53.89700000      65.39300000      43.05400000 
H      54.86400000      66.42900000      44.08500000 
N      53.96600000      63.43000000      47.41400000 
C      53.56200000      62.78800000      48.66100000 
C      53.75900000      61.26100000      48.61400000 
O      53.62400000      60.60100000      47.60400000 
C      52.04700000      63.13900000      48.77600000 
C      51.62600000      63.40900000      47.32200000 
C      52.84800000      64.07800000      46.69100000 
H      54.12400000      63.17700000      49.47400000 
H      51.49000000      62.36500000      49.24800000 
H      51.96900000      64.04000000      49.36400000 
H      51.40200000      62.47100000      46.82200000 
H      50.75300000      64.03600000      47.26700000 
H      52.91100000      63.88600000      45.64200000 
H      52.85200000      65.13200000      46.86900000 
N      54.03900000      60.71000000      49.82100000 
C      54.19900000      59.31100000      50.02700000 
C      52.86500000      58.66100000      50.44200000 
O      52.01200000      59.28200000      51.09700000 
C      55.29600000      59.04500000      51.09100000 
C      54.99000000      59.59000000      52.51000000 
O      54.71000000      60.85000000      52.55000000 
O      55.08000000      58.84500000      53.44600000 
H      54.14500000      61.30400000      50.64400000 
H      54.51700000      58.86600000      49.11900000 
H      55.45900000      57.97700000      51.17400000 
H      56.20400000      59.49900000      50.73400000 
N      52.72500000      57.38300000      50.06500000 
C      51.50700000      56.62400000      50.31300000 
C      51.86400000      55.13400000      50.08100000 
O      52.99400000      54.81800000      49.75700000 
C      50.33300000      57.09400000      49.44700000 
C      50.59400000      57.10700000      47.95000000 
C      50.27500000      58.38100000      47.19500000 
O      50.03200000      59.45200000      47.86000000 
O      50.30400000      58.32800000      45.93900000 
H      53.43200000      56.92100000      49.60000000 
H      51.22300000      56.70300000      51.35900000 
H      49.44300000      56.54200000      49.69000000 
H      50.13000000      58.13600000      49.76100000 
H      51.64300000      56.89400000      47.73900000 
H      50.04200000      56.29800000      47.45500000 
N      50.91500000      54.21700000      50.24500000 
C      51.12500000      52.81700000      50.13400000 
C      49.79000000      52.16700000      49.69700000 
O      48.75500000      52.75000000      49.80900000 
C      51.64100000      52.18500000      51.44500000 
C      50.71200000      52.29900000      52.62900000 
C      50.65500000      53.41600000      53.41200000 
C      49.85200000      51.22800000      52.95300000 
C      49.78700000      53.54100000      54.46900000 
C      48.98000000      51.31300000      53.97600000 
C      48.90300000      52.45900000      54.77500000 
H      49.94900000      54.52400000      50.50800000 
H      51.85800000      52.64900000      49.36000000 
H      51.91500000      51.14900000      51.25800000 
H      52.59700000      52.71600000      51.67400000 
H      51.32600000      54.25700000      53.20600000 
H      49.90200000      50.32200000      52.34300000 
H      49.74300000      54.41800000      55.07000000 
H      48.32400000      50.49400000      54.21600000 
H      48.23200000      52.54400000      55.58100000 
N      44.63300000      53.08600000      50.97400000 
C      44.45400000      53.84200000      52.20500000 
C      45.50700000      54.94100000      52.24900000 
O      46.68300000      54.66100000      51.97200000 
C      44.61900000      52.93000000      53.42100000 
H      45.54200000      52.76100000      50.78900000 
H      43.45800000      54.27400000      52.19100000 
H      44.45800000      53.50200000      54.35700000 
H      43.88900000      52.13400000      53.39300000 
H      45.60500000      52.50800000      53.45200000 
N      45.13100000      56.15200000      52.63200000 
C      46.05800000      57.28800000      52.72000000 
C      46.78400000      57.29900000      54.05800000 
O      48.00000000      57.18700000      54.12300000 
C      45.36600000      58.60100000      52.36100000 
C      46.31300000      59.77300000      52.22900000 
C      47.15400000      59.84300000      51.10200000 
C      46.39500000      60.73800000      53.19400000 
C      48.04800000      60.89500000      50.97500000 
C      47.29900000      61.81700000      53.07100000 
C      48.13200000      61.87100000      51.94000000 
O      49.03500000      62.87700000      51.76500000 
H      44.16200000      56.33900000      52.82500000 
H      46.85000000      57.09400000      51.98500000 
H      44.83500000      58.43700000      51.42400000 
H      44.59400000      58.82300000      53.10900000 
H      47.09600000      59.11000000      50.34500000 
H      45.76400000      60.71600000      54.05300000 
H      48.68600000      60.95800000      50.11900000 
H      47.35400000      62.56500000      53.82000000 
H      49.07200000      63.52600000      52.47900000 
N      45.99900000      57.43800000      55.16800000 
C      46.58700000      57.44900000      56.50500000 
C      45.64100000      56.72200000      57.49000000 
O      45.67200000      57.02500000      58.69200000 
C      46.97100000      58.82800000      56.98800000 
C      48.10400000      58.83600000      58.02300000 
C      48.30900000      60.22100000      58.65100000 
N      49.50600000      60.17800000      59.49500000 
C      49.80300000      61.14900000      60.38200000 
N      49.07600000      62.19900000      60.57300000 
N      50.92300000      61.00100000      61.10500000 
H      45.05800000      57.63700000      55.06900000 
H      47.48900000      56.82400000      56.46100000 
H      47.28800000      59.41600000      56.12100000 
H      46.09500000      59.33900000      57.40200000 
H      47.91000000      58.11600000      58.80000000 
H      49.03000000      58.53100000      57.52200000 
H      48.40800000      60.97300000      57.88000000 
H      47.42800000      60.45500000      59.24500000 
H      50.11600000      59.45500000      59.38200000 
H      48.22100000      62.36200000      60.01100000 
H      49.27500000      62.88900000      61.23500000 
H      51.51900000      60.20200000      61.01400000 
H      51.20800000      61.70300000      61.76300000 
N      44.84100000      55.78500000      56.98000000 
C      43.97600000      55.02400000      57.86600000 
C      44.67800000      53.71700000      58.28300000 
O      45.87500000      53.50900000      58.02000000 
C      42.61000000      54.75100000      57.18700000 
C      41.46100000      55.00800000      58.18100000 
O      41.47100000      55.96500000      58.93300000 
N      40.41900000      54.13000000      58.12500000 
H      44.91200000      55.53000000      56.04200000 
H      43.83000000      55.58500000      58.74700000 
H      42.47500000      55.48000000      56.40500000 
H      42.53700000      53.78200000      56.75900000 
H      39.65200000      54.28600000      58.70700000 
H      40.43000000      53.35000000      57.53300000 
N      60.30100000      51.46300000      61.31500000 
C      59.78600000      52.33000000      60.27300000 
C      60.91300000      52.65200000      59.31700000 
O      62.07300000      52.62000000      59.71700000 
C      59.10900000      53.62600000      60.81900000 
C      60.11600000      54.54200000      61.51100000 
C      59.51000000      55.80000000      62.11600000 
O      60.23000000      56.45400000      62.92200000 
O      58.33200000      56.13600000      61.76100000 
H      61.23300000      51.56500000      61.55700000 
H      59.01000000      51.78300000      59.72900000 
H      58.62500000      54.13200000      60.01300000 
H      58.35200000      53.31500000      61.51900000 
H      60.64100000      54.03500000      62.29400000 
H      60.86500000      54.89100000      60.81100000 
N      60.59300000      52.97100000      58.09500000 
C      61.48900000      53.38200000      57.05000000 
C      61.49700000      54.88200000      56.88700000 
O      60.37500000      55.50100000      56.77600000 
C      61.16500000      52.73700000      55.69000000 
C      61.32500000      51.21800000      55.65700000 
C      60.66100000      50.64800000      54.38600000 
C      62.80800000      50.79300000      55.74200000 
H      59.57900000      52.98100000      57.82800000 
H      62.49900000      53.07700000      57.38400000 
H      60.14400000      52.99900000      55.45600000 
H      61.79600000      53.17900000      54.93800000 
H      60.80400000      50.78500000      56.51100000 
H      60.77900000      49.57800000      54.33300000 
H      59.63600000      50.89600000      54.34100000 
H      61.16000000      51.07300000      53.49200000 
H      62.88900000      49.70100000      55.72500000 
H      63.34600000      51.17100000      54.88300000 
H      63.28100000      51.14200000      56.63000000 
N      50.69700000      55.30600000      61.50300000 
C      51.24600000      56.65300000      61.38000000 
C      52.04500000      56.86900000      60.11500000 
O      52.91700000      57.72000000      60.04200000 
C      52.05500000      57.03900000      62.64300000 
C      53.26400000      56.14900000      62.93900000 
C      54.19400000      56.75800000      64.01400000 
C      55.66100000      56.52300000      63.71400000 
N      56.15900000      57.36000000      62.58900000 
H      51.33500000      54.54100000      61.52700000 
H      50.41400000      57.31600000      61.31900000 
H      52.39100000      58.07200000      62.49900000 
H      51.37700000      57.04600000      63.47900000 
H      52.94200000      55.18000000      63.26500000 
H      53.82800000      55.99600000      62.02000000 
H      54.02600000      57.83200000      64.10400000 
H      53.96100000      56.33500000      64.99100000 
H      56.29500000      56.77800000      64.59900000 
H      55.86200000      55.50000000      63.46000000 
H      57.09400000      57.03100000      62.29000000 
H      55.54600000      57.31400000      61.80100000 
H      56.21800000      58.34200000      62.85900000 
N      51.64800000      56.11700000      59.02200000 
C      52.22900000      56.32300000      57.73100000 
C      52.93200000      55.04600000      57.22700000 
O      52.39800000      53.95100000      57.40100000 
H      50.95100000      55.46400000      59.13100000 
H      51.46500000      56.55600000      57.00200000 
H      52.93200000      57.15300000      57.75400000 
N      54.10100000      55.21200000      56.59800000 
C      54.84200000      54.10600000      56.02400000 
C      55.61100000      53.39200000      57.09800000 
O      56.58600000      53.92800000      57.68700000 
C      55.76400000      54.62200000      54.90800000 
C      55.01500000      54.71800000      53.59700000 
O      54.59200000      53.67600000      53.08000000 
N      54.82800000      55.92300000      53.06600000 
H      54.50600000      56.11200000      56.55700000 
H      54.12900000      53.41400000      55.58200000 
H      56.20900000      55.58300000      55.20100000 
H      56.57500000      53.92600000      54.75500000 
H      54.32500000      55.95800000      52.18700000 
H      55.09900000      56.78300000      53.44000000 
N      55.18100000      52.13800000      57.39400000 
C      55.67700000      51.27700000      58.44700000 
C      55.95800000      49.91300000      57.82300000 
O      55.15600000      49.43600000      56.99000000 
C      54.63400000      51.17000000      59.58900000 
C      54.86300000      49.99100000      60.53300000 
C      54.59900000      52.50800000      60.37600000 
H      54.40200000      51.79900000      56.88800000 
H      56.60200000      51.69400000      58.82600000 
H      53.66700000      51.03400000      59.10700000 
H      54.15300000      50.02400000      61.33900000 
H      54.76300000      49.04700000      60.02800000 
H      55.87100000      50.03500000      60.97400000 
H      53.83400000      52.45200000      61.14200000 
H      55.54600000      52.68000000      60.85700000 
H      54.36900000      53.33800000      59.73800000 
H      54.04033587      47.40827171      49.21862218 
H      57.38401568      53.44707651      46.99315722 
H      57.18940452      65.65527316      45.82089266 
H      49.78550227      51.24350255      49.31342180 
H      44.10870171      52.35469933      50.99162500 
H      44.16940530      53.01195968      58.77721611 
H      59.83988469      51.60068044      62.07553716 
H      62.36501855      55.37811750      56.86672165 
H      50.22683703      55.24187894      62.26774523 
H      56.78002253      49.40511762      58.08055476 
