364
Properties=species:S:1:pos:R:3 pbc="F F F"
N      14.74500000      12.57200000      26.86200000 
C      16.18100000      12.56700000      26.62600000 
C      16.59300000      11.39900000      25.73900000 
O      17.63500000      11.46900000      25.06400000 
C      16.96400000      12.55600000      27.96700000 
C      17.32400000      11.15700000      28.50500000 
C      17.42300000      10.99700000      30.02400000 
N      18.16700000      12.07400000      30.69500000 
C      18.58800000      12.02400000      31.95600000 
N      18.61700000      10.87800000      32.62500000 
N      18.98500000      13.13600000      32.57000000 
H      14.43100000      12.44500000      27.80200000 
H      16.44900000      13.45900000      26.08400000 
H      17.87400000      13.11600000      27.80300000 
H      16.37100000      13.11200000      28.68000000 
H      16.56700000      10.44300000      28.21400000 
H      18.25200000      10.83900000      28.04400000 
H      16.42900000      10.95900000      30.44100000 
H      17.91800000      10.05500000      30.21100000 
H      18.20200000      12.95700000      30.24300000 
H      18.39900000      10.01000000      32.19700000 
H      18.89200000      10.85600000      33.57900000 
H      18.86700000      14.02800000      32.15000000 
H      19.39000000      13.11000000      33.47600000 
N      15.81900000      10.31100000      25.74100000 
C      16.14400000       9.11900000      24.98100000 
C      15.83600000       9.31100000      23.50400000 
O      16.48200000       8.68200000      22.64900000 
C      15.40200000       7.91900000      25.58800000 
C      15.72400000       6.60400000      24.89000000 
O      16.91200000       6.17700000      24.99000000 
O      14.78400000       6.03200000      24.27100000 
H      14.97400000      10.29900000      26.27400000 
H      17.20800000       8.94200000      25.03500000 
H      15.72000000       7.84400000      26.62100000 
H      14.33800000       8.09600000      25.56700000 
N      14.89300000      10.19500000      23.15500000 
C      14.70900000      10.56500000      21.76400000 
C      15.89900000      11.39300000      21.29000000 
O      16.35700000      11.21700000      20.14900000 
C      13.38300000      11.29600000      21.55500000 
H      14.39800000      10.70300000      23.85200000 
H      14.72500000       9.67200000      21.16000000 
H      13.24500000      11.51100000      20.50500000 
H      12.56900000      10.66100000      21.88100000 
H      13.34600000      12.22300000      22.11000000 
N      16.44600000      12.28000000      22.13600000 
C      17.62800000      13.03900000      21.74900000 
C      18.78500000      12.08600000      21.46800000 
O      19.55800000      12.32300000      20.52500000 
C      18.06600000      14.12700000      22.77600000 
C      16.90200000      14.89500000      23.43300000 
C      19.05100000      15.09500000      22.09900000 
C      15.99900000      15.71100000      22.50700000 
H      16.04800000      12.40700000      23.03700000 
H      17.42800000      13.51800000      20.80300000 
H      18.58600000      13.62100000      23.58300000 
H      16.28600000      14.21200000      23.99800000 
H      17.35200000      15.56200000      24.16300000 
H      19.32500000      15.88600000      22.78800000 
H      19.95800000      14.59900000      21.78300000 
H      18.60500000      15.55400000      21.22600000 
H      15.21100000      16.18100000      23.08600000 
H      16.54100000      16.49500000      21.99300000 
H      15.52400000      15.08600000      21.76300000 
N      18.94200000      10.98900000      22.21700000 
C      19.98600000      10.01300000      21.91000000 
C      19.89300000       9.54500000      20.46400000 
O      20.92800000       9.44100000      19.77800000 
C      19.88600000       8.83100000      22.89200000 
C      20.91600000       7.70600000      22.68000000 
C      22.35200000       8.16700000      22.95100000 
C      20.56200000       6.51000000      23.57500000 
H      18.39200000      10.86400000      23.04000000 
H      20.95000000      10.48500000      21.97800000 
H      20.00300000       9.23000000      23.89500000 
H      18.88700000       8.42000000      22.82600000 
H      20.86100000       7.36800000      21.64900000 
H      23.03400000       7.33900000      22.82200000 
H      22.66400000       8.95500000      22.27700000 
H      22.45300000       8.53100000      23.96800000 
H      21.27300000       5.70300000      23.43000000 
H      20.58400000       6.79100000      24.62300000 
H      19.57200000       6.12900000      23.35100000 
N      18.69200000       9.24200000      19.96700000 
C      18.52000000       8.75000000      18.60900000 
C      18.92200000       9.77900000      17.56700000 
O      19.27700000       9.39500000      16.43400000 
C      17.07800000       8.30200000      18.37800000 
C      16.71300000       7.03800000      19.15200000 
O      17.61700000       6.17500000      19.33400000 
O      15.50700000       6.93300000      19.52100000 
H      17.88100000       9.38200000      20.52600000 
H      19.17200000       7.90600000      18.45600000 
H      16.39100000       9.09500000      18.63200000 
H      16.95200000       8.08200000      17.32300000 
N      18.90600000      11.06800000      17.89700000 
C      19.29500000      12.12500000      16.98200000 
C      20.77400000      12.10800000      16.64600000 
O      21.17900000      12.80600000      15.70200000 
C      18.93200000      13.48200000      17.58900000 
H      18.65200000      11.33700000      18.82200000 
H      18.77600000      11.98900000      16.04600000 
H      19.15000000      14.27900000      16.89500000 
H      17.87800000      13.49300000      17.81400000 
H      19.47900000      13.65200000      18.50300000 
N      21.58100000      11.35800000      17.40300000 
C      22.99700000      11.23000000      17.14000000 
C      23.32300000       9.85400000      16.54700000 
O      24.50900000       9.51200000      16.40200000 
C      23.91300000      11.49400000      18.35200000 
C      23.97300000      12.90900000      18.97600000 
C      24.33500000      14.02200000      17.98500000 
C      22.73100000      13.29900000      19.78100000 
H      21.16700000      10.83800000      18.15000000 
H      23.23500000      11.93800000      16.36200000 
H      23.66100000      10.78700000      19.13600000 
H      24.91200000      11.24900000      18.01800000 
H      24.79600000      12.84100000      19.68600000 
H      24.47700000      14.96000000      18.51500000 
H      25.25400000      13.80400000      17.45300000 
H      23.54700000      14.17900000      17.25800000 
H      22.94800000      14.16500000      20.40000000 
H      21.90100000      13.55300000      19.13800000 
H      22.41200000      12.49500000      20.43200000 
N      22.30800000       9.06000000      16.16300000 
C      22.52100000       7.72700000      15.62800000 
C      22.29200000       7.63400000      14.12800000 
O      22.80200000       6.69900000      13.49100000 
C      21.64300000       6.67600000      16.34000000 
C      21.89200000       6.62000000      17.84700000 
C      23.31800000       6.25500000      18.23700000 
O      23.90400000       5.35400000      17.56200000 
O      23.82100000       6.86000000      19.22900000 
H      21.36700000       9.33600000      16.35000000 
H      23.55600000       7.47300000      15.77700000 
H      20.59900000       6.90200000      16.15400000 
H      21.85800000       5.71400000      15.89800000 
H      21.63600000       7.55600000      18.31500000 
H      21.23300000       5.86400000      18.27100000 
N      21.51600000       8.55500000      13.52900000 
C      21.25300000       8.53600000      12.10000000 
C      22.34400000       9.23700000      11.29400000 
O      22.37700000       9.09900000      10.06000000 
C      19.90100000       9.19100000      11.79400000 
C      18.75300000       8.40600000      12.38500000 
O      18.59800000       7.20400000      12.11600000 
N      17.92300000       9.07500000      13.18900000 
H      21.12200000       9.28600000      14.07700000 
H      21.23800000       7.51100000      11.76600000 
H      19.89600000      10.20800000      12.15100000 
H      19.76200000       9.21400000      10.72100000 
H      17.14700000       8.60900000      13.60200000 
H      18.07800000      10.02400000      13.43800000 
N      23.19800000      10.00000000      11.97600000 
C      24.31200000      10.71100000      11.39300000 
C      25.54600000       9.81000000      11.33300000 
O      25.58900000       8.71900000      11.91600000 
C      24.51100000      12.05200000      12.13500000 
C      24.72300000      12.01900000      13.66200000 
C      26.14400000      11.63000000      14.08300000 
C      24.35400000      13.39500000      14.23200000 
H      23.11200000      10.01800000      12.96200000 
H      24.05600000      10.95000000      10.37000000 
H      25.32400000      12.60000000      11.67500000 
H      23.60600000      12.61100000      11.93700000 
H      24.04200000      11.29800000      14.10100000 
H      26.22200000      11.63700000      15.16500000 
H      26.42000000      10.64000000      13.74700000 
H      26.86500000      12.33500000      13.69000000 
H      24.56700000      13.43300000      15.28900000 
H      24.93800000      14.17000000      13.75800000 
H      23.30100000      13.60600000      14.09600000 
N      26.56600000      10.24900000      10.57500000 
C      27.75600000       9.47300000      10.35100000 
C      28.85600000       9.84300000      11.34100000 
O      28.80700000      10.86600000      12.03500000 
C      28.26600000       9.67000000       8.91600000 
O      28.74300000      11.03500000       8.87000000 
C      27.20700000       9.42000000       7.85500000 
H      26.52700000      11.15500000      10.16700000 
H      27.51300000       8.42800000      10.48300000 
H      29.10400000       9.00600000       8.75600000 
H      28.97600000      11.32800000       7.99200000 
H      27.65000000       9.49800000       6.86800000 
H      26.78900000       8.42700000       7.95900000 
H      26.40500000      10.14200000       7.92700000 
N      30.18300000      13.31700000      10.47600000 
C      29.35200000      14.44700000      10.87000000 
C      29.60800000      14.82800000      12.32000000 
O      29.65900000      16.02700000      12.64900000 
C      27.87300000      14.10500000      10.60400000 
C      26.90700000      15.28800000      10.64600000 
C      26.49400000      15.80700000      12.01600000 
O      26.85400000      15.17000000      13.04600000 
O      25.76800000      16.84700000      12.02800000 
H      29.73000000      12.47600000      10.18500000 
H      29.63000000      15.31500000      10.28800000 
H      27.83400000      13.67800000       9.60900000 
H      27.55700000      13.33500000      11.29200000 
H      27.29300000      16.12200000      10.07200000 
H      25.98700000      14.98900000      10.15200000 
N      29.81700000      13.84600000      13.20200000 
C      29.93600000      14.08600000      14.63700000 
C      31.00000000      15.13500000      14.93600000 
O      30.78900000      16.00900000      15.79600000 
C      30.19600000      12.71300000      15.29900000 
C      30.25500000      12.61400000      16.83600000 
C      31.57600000      13.12100000      17.43500000 
C      29.03500000      13.23700000      17.52800000 
H      29.73500000      12.90100000      12.89300000 
H      29.01300000      14.50900000      15.00300000 
H      29.38200000      12.07600000      14.96500000 
H      31.10600000      12.30000000      14.88100000 
H      30.22000000      11.54500000      17.03400000 
H      31.66100000      12.80100000      18.46900000 
H      32.42800000      12.71800000      16.89900000 
H      31.64500000      14.20100000      17.40900000 
H      29.04700000      13.00800000      18.58800000 
H      29.02000000      14.31500000      17.42300000 
H      28.11100000      12.84500000      17.11600000 
N      28.98200000      10.78200000      21.32100000 
C      27.56100000      11.05700000      21.17100000 
C      26.81300000      10.75400000      22.46200000 
O      25.88100000      11.48700000      22.83400000 
C      27.00100000      10.21400000      20.02000000 
H      29.41800000      10.19500000      20.64600000 
H      27.40200000      12.10600000      20.97400000 
H      25.93200000      10.33900000      19.95400000 
H      27.44200000      10.53300000      19.08500000 
H      27.21900000       9.16600000      20.17000000 
N      27.17000000       9.66500000      23.15500000 
C      26.46000000       9.25500000      24.35400000 
C      26.69700000      10.24400000      25.48600000 
O      25.77300000      10.58000000      26.25400000 
C      26.91100000       7.86500000      24.85000000 
C      27.03700000       6.76100000      23.78700000 
C      27.36400000       5.44000000      24.49600000 
C      25.78600000       6.61500000      22.91700000 
H      27.90600000       9.09400000      22.80900000 
H      25.40000000       9.26000000      24.15700000 
H      27.87000000       7.96400000      25.34800000 
H      26.19300000       7.55900000      25.60400000 
H      27.87600000       7.00200000      23.13900000 
H      27.53000000       4.64800000      23.77600000 
H      28.25500000       5.53500000      25.10800000 
H      26.54200000       5.14500000      25.14000000 
H      25.93600000       5.84900000      22.16400000 
H      24.93400000       6.32900000      23.52300000 
H      25.54100000       7.53500000      22.40000000 
N      24.86900000      13.50200000      25.14800000 
C      23.51500000      13.48900000      25.68400000 
C      23.49000000      13.64900000      27.19600000 
O      22.66000000      14.42700000      27.69800000 
C      22.67300000      12.26800000      25.27000000 
O      23.06200000      11.05600000      25.92600000 
C      22.60500000      12.09300000      23.76400000 
H      25.22000000      12.73400000      24.61700000 
H      22.99200000      14.35600000      25.31000000 
H      21.67900000      12.46400000      25.64600000 
H      23.98800000      10.81200000      25.84900000 
H      21.91400000      11.29500000      23.55000000 
H      22.24700000      12.99600000      23.28800000 
H      23.56500000      11.83300000      23.34300000 
N      18.47200000      21.77600000      20.30700000 
C      18.94800000      20.70100000      19.45400000 
C      18.52100000      20.95500000      18.01700000 
O      19.32400000      20.81500000      17.08000000 
C      18.41900000      19.34700000      19.97100000 
O      18.97200000      19.09700000      21.27000000 
C      18.82300000      18.19500000      19.07200000 
H      17.93000000      21.54500000      21.11500000 
H      20.02800000      20.66900000      19.45200000 
H      17.34000000      19.39900000      20.04400000 
H      18.48000000      19.52600000      21.97100000 
H      18.50700000      17.26800000      19.52100000 
H      18.35700000      18.27400000      18.10300000 
H      19.89900000      18.16900000      18.94300000 
N      19.66300000      17.41000000       7.77600000 
C      19.10800000      16.08800000       7.57800000 
C      17.61700000      16.08100000       7.85200000 
O      17.11700000      16.77100000       8.75900000 
C      19.78800000      15.07300000       8.51300000 
C      21.23800000      14.80600000       8.07900000 
C      21.99300000      14.09900000       9.17500000 
O      21.72300000      12.92900000       9.50900000 
N      22.94200000      14.81600000       9.78700000 
H      19.63300000      17.78900000       8.69600000 
H      19.28100000      15.81200000       6.54900000 
H      19.75800000      15.47100000       9.52100000 
H      19.24300000      14.14200000       8.50800000 
H      21.24100000      14.17600000       7.20400000 
H      21.72900000      15.73000000       7.84200000 
H      23.16600000      15.73400000       9.48300000 
H      23.45700000      14.43300000      10.54200000 
N      16.08400000      13.84000000       9.37400000 
C      15.91800000      13.36600000      10.73400000 
C      15.79800000      14.49700000      11.74300000 
O      15.31900000      14.22900000      12.86300000 
C      17.03700000      12.39100000      11.14600000 
C      18.44200000      13.01100000      11.13700000 
S      19.42200000      12.82700000      12.72400000 
C      18.46300000      13.93400000      13.87800000 
H      16.88800000      13.55600000       8.86400000 
H      14.98500000      12.82900000      10.79900000 
H      16.77800000      12.01600000      12.12600000 
H      17.00100000      11.54400000      10.47300000 
H      19.06800000      12.55100000      10.39100000 
H      18.41100000      14.06800000      10.93100000 
H      19.10300000      14.10900000      14.71900000 
H      18.25000000      14.86400000      13.38000000 
H      17.55000000      13.45600000      14.18700000 
N      12.25400000      14.34200000      12.21200000 
C      11.91500000      13.12500000      12.93900000 
C      12.03200000      13.36600000      14.43200000 
O      11.15900000      12.93000000      15.20200000 
C      12.81800000      11.95700000      12.50200000 
C      12.57600000      10.65400000      13.28300000 
C      13.41400000      10.52600000      14.53900000 
O      14.62200000      10.82800000      14.54000000 
N      12.81300000      10.03500000      15.62500000 
H      13.01400000      14.33100000      11.57200000 
H      10.88100000      12.86900000      12.76200000 
H      12.63200000      11.77800000      11.45100000 
H      13.85200000      12.24100000      12.61200000 
H      11.52700000      10.51900000      13.50700000 
H      12.87400000       9.82200000      12.65200000 
H      11.83800000       9.84700000      15.65100000 
H      13.33200000       9.90400000      16.46300000 
N      13.09700000      14.03500000      14.88800000 
C      13.23300000      14.27700000      16.31300000 
C      12.11100000      15.18200000      16.80600000 
O      11.51800000      14.92000000      17.87200000 
C      14.61100000      14.86700000      16.64600000 
C      14.79200000      15.12900000      18.14900000 
C      14.71300000      13.82600000      18.95100000 
C      16.09400000      15.88800000      18.41800000 
H      13.83400000      14.29600000      14.26500000 
H      13.09700000      13.34300000      16.83600000 
H      15.36600000      14.16200000      16.30800000 
H      14.75200000      15.78500000      16.08900000 
H      13.98900000      15.77400000      18.47800000 
H      14.96200000      13.99500000      19.99000000 
H      13.71800000      13.40300000      18.92700000 
H      15.40200000      13.08600000      18.56500000 
H      16.21700000      16.05900000      19.48000000 
H      16.95600000      15.33900000      18.06800000 
H      16.08700000      16.85200000      17.92300000 
H      14.40045536      13.36152764      26.60135637 
H      29.65373767       9.24937016      11.44691614 
H      30.70132960      13.55372521       9.77936839 
H      31.86869756      15.12131607      14.44084619 
H      29.44238667      11.55473765      21.29065791 
H      27.60609798      10.63685255      25.62459198 
H      24.96458417      14.20178913      24.59018387 
H      24.13223810      13.13425351      27.76394919 
H      19.17440244      22.23759062      20.62881503 
H      17.58320131      21.23860991      17.81675256 
H      20.53389280      17.40730400       7.54897915 
H      17.00939587      15.51234121       7.29752330 
H      15.38828588      13.56573936       8.87323762 
H      16.09848529      15.41897158      11.49871123 
H      11.54925733      14.60199385      11.71627733 
H      11.84862626      15.98769837      16.27495371 
