524
Properties=species:S:1:pos:R:3 pbc="F F F"
N      46.37100000      37.60600000      52.32400000 
C      46.48900000      39.05000000      52.27900000 
C      47.90800000      39.44800000      52.03700000 
O      48.85800000      38.66100000      52.24900000 
C      45.93700000      39.65100000      53.57900000 
C      46.84900000      39.31400000      54.76300000 
C      44.52300000      39.15200000      53.80700000 
C      46.30900000      39.85600000      56.07900000 
H      46.77500000      37.12400000      53.07500000 
H      45.88700000      39.39400000      51.47000000 
H      45.93500000      40.72300000      53.44700000 
H      46.95600000      38.25200000      54.83800000 
H      47.82700000      39.72800000      54.58900000 
H      44.04100000      39.74200000      54.57700000 
H      43.94600000      39.23000000      52.91400000 
H      44.53900000      38.12900000      54.12700000 
H      47.01800000      39.70900000      56.87000000 
H      46.09300000      40.91500000      56.00200000 
H      45.38900000      39.34800000      56.35600000 
N      48.10000000      40.69800000      51.63000000 
C      49.43200000      41.16400000      51.34700000 
C      49.44500000      42.67800000      51.48400000 
O      48.52900000      43.31500000      51.96200000 
C      49.93500000      40.70300000      49.97500000 
C      51.38800000      40.28200000      49.93000000 
C      51.81600000      39.80800000      48.57500000 
O      53.05900000      39.89100000      48.30800000 
O      50.94400000      39.36800000      47.79200000 
H      47.35300000      41.25800000      51.34400000 
H      50.09600000      40.78600000      52.11100000 
H      49.34000000      39.82100000      49.70800000 
H      49.74300000      41.43400000      49.23800000 
H      52.06000000      41.10300000      50.22200000 
H      51.56500000      39.49500000      50.64200000 
N      50.56400000      43.27700000      51.04400000 
C      50.78400000      44.68200000      51.16400000 
C      51.94600000      45.00100000      50.25200000 
O      52.92600000      44.23700000      50.24600000 
C      51.01100000      45.12400000      52.62300000 
C      51.80900000      44.21400000      53.49300000 
O      51.56900000      44.18800000      54.70500000 
N      52.77500000      43.47700000      52.94900000 
H      51.30100000      42.72200000      50.66200000 
H      49.91400000      45.19700000      50.81800000 
H      51.47800000      46.10100000      52.62700000 
H      50.05300000      45.22400000      53.08200000 
H      53.28800000      42.86700000      53.55200000 
H      52.99500000      43.51600000      51.99800000 
N      51.82900000      46.04200000      49.45300000 
C      52.79100000      46.29900000      48.41600000 
C      53.15600000      47.78300000      48.43300000 
O      52.66800000      48.60800000      47.67200000 
C      52.28000000      45.82400000      47.06300000 
C      52.27700000      44.32300000      47.05100000 
C      51.40800000      43.66300000      46.00200000 
N      51.99600000      43.78300000      44.66400000 
C      51.56400000      43.08900000      43.64400000 
N      52.22000000      43.09300000      42.49300000 
N      50.46800000      42.35600000      43.76400000 
H      51.03100000      46.65500000      49.52000000 
H      53.68400000      45.75800000      48.65600000 
H      51.26900000      46.21500000      46.91900000 
H      52.90000000      46.22800000      46.27200000 
H      53.30500000      43.95100000      46.97000000 
H      51.90500000      43.95100000      48.00100000 
H      51.35300000      42.60900000      46.22300000 
H      50.44700000      44.07000000      46.01700000 
H      52.79000000      44.38000000      44.54300000 
H      53.08100000      43.57000000      42.39500000 
H      51.87400000      42.58300000      41.70100000 
H      49.91300000      42.38700000      44.57900000 
H      50.16700000      41.76000000      43.03200000 
N      54.06400000      48.11300000      49.35400000 
C      54.56300000      49.46800000      49.49800000 
C      55.16400000      49.96300000      48.19500000 
O      55.73700000      49.19600000      47.39500000 
C      55.66700000      49.48000000      50.54100000 
C      55.14900000      49.29500000      51.91600000 
C      54.65300000      50.37900000      52.61900000 
C      55.14600000      48.05300000      52.53100000 
C      54.17100000      50.25000000      53.90700000 
C      54.65400000      47.90100000      53.82700000 
C      54.16900000      49.00000000      54.49900000 
H      54.44000000      47.40900000      49.94900000 
H      53.77700000      50.11700000      49.77400000 
H      56.39000000      48.69400000      50.28800000 
H      56.17400000      50.42900000      50.46500000 
H      54.66700000      51.35700000      52.16000000 
H      55.54100000      47.20700000      52.01000000 
H      53.80800000      51.09600000      54.42900000 
H      54.66800000      46.94200000      54.28400000 
H      53.83600000      48.89800000      55.50900000 
N      55.12200000      51.25500000      48.07300000 
C      55.76500000      52.00300000      47.00700000 
C      56.43800000      53.19700000      47.62600000 
O      55.87400000      53.80700000      48.53600000 
C      54.72000000      52.53100000      46.02300000 
C      54.04500000      51.36500000      45.32100000 
C      55.32200000      53.49300000      45.01700000 
C      52.73700000      51.76400000      44.66000000 
H      54.65700000      51.82100000      48.75100000 
H      56.47100000      51.36600000      46.51400000 
H      53.97800000      53.05100000      46.61400000 
H      54.71900000      50.94200000      44.59300000 
H      53.83200000      50.58600000      46.05000000 
H      54.60100000      53.74700000      44.25600000 
H      55.63100000      54.41600000      45.48100000 
H      56.18600000      53.05900000      44.53300000 
H      52.25000000      50.90600000      44.21100000 
H      52.05900000      52.18500000      45.38500000 
H      52.89000000      52.49400000      43.88500000 
N      50.94000000      54.20300000      50.34900000 
C      51.22300000      52.80400000      50.11100000 
C      49.92500000      52.12200000      49.73100000 
O      48.86300000      52.71100000      49.92100000 
C      51.83700000      52.12200000      51.33300000 
C      50.87700000      52.00500000      52.48100000 
C      50.58100000      53.09300000      53.27100000 
C      50.25000000      50.80000000      52.75700000 
C      49.68700000      53.01100000      54.30900000 
C      49.34900000      50.68700000      53.81600000 
C      49.07100000      51.82500000      54.59400000 
H      49.99100000      54.42200000      50.53300000 
H      51.92800000      52.72300000      49.28800000 
H      52.15300000      51.11600000      51.03800000 
H      52.69900000      52.66300000      51.62100000 
H      51.08000000      54.04300000      53.06500000 
H      50.45500000      49.95100000      52.16100000 
H      49.47000000      53.88000000      54.90800000 
H      48.89100000      49.76800000      54.03000000 
H      48.38300000      51.73100000      55.40400000 
N      50.00700000      50.88100000      49.26200000 
C      48.81900000      50.11600000      48.97000000 
C      48.93100000      48.74100000      49.55100000 
O      50.03600000      48.23900000      49.80100000 
C      48.53100000      50.02100000      47.46100000 
C      48.66500000      51.40300000      46.82400000 
C      49.48300000      49.04500000      46.78000000 
H      50.89100000      50.44400000      49.12000000 
H      47.98800000      50.64500000      49.43000000 
H      47.53700000      49.67500000      47.36400000 
H      48.22100000      51.38000000      45.84000000 
H      48.17000000      52.13900000      47.42300000 
H      49.70600000      51.66400000      46.73000000 
H      49.26800000      49.01700000      45.71400000 
H      50.50700000      49.33300000      46.91300000 
H      49.36700000      48.03100000      47.16500000 
N      47.78200000      48.11000000      49.69400000 
C      47.72600000      46.70800000      50.09000000 
C      46.75400000      45.99600000      49.25300000 
O      45.90900000      46.60100000      48.55500000 
C      47.42200000      46.54900000      51.59000000 
C      48.31100000      47.45800000      52.40800000 
C      45.96700000      46.79200000      51.87300000 
H      46.93400000      48.53700000      49.47500000 
H      48.70800000      46.30800000      49.89500000 
H      47.66300000      45.51300000      51.83900000 
H      48.20200000      47.24000000      53.46200000 
H      49.33300000      47.38000000      52.12600000 
H      48.00200000      48.49700000      52.24800000 
H      45.77100000      46.75600000      52.93700000 
H      45.66400000      47.77600000      51.51400000 
H      45.32300000      46.05600000      51.39100000 
N      46.81200000      44.66300000      49.30500000 
C      46.01700000      43.82300000      48.44600000 
C      45.57900000      42.62900000      49.26600000 
O      46.29900000      42.21000000      50.16600000 
C      46.82600000      43.38200000      47.21300000 
C      47.89600000      42.30800000      47.51100000 
C      47.52600000      44.58200000      46.59000000 
C      47.39700000      40.88100000      47.44400000 
H      47.45000000      44.21100000      49.93800000 
H      45.18700000      44.37500000      48.12200000 
H      46.12400000      42.96300000      46.50500000 
H      48.67800000      42.42700000      46.79100000 
H      48.31500000      42.51900000      48.48100000 
H      47.96300000      44.29900000      45.65900000 
H      46.83000000      45.39500000      46.43100000 
H      48.30100000      44.92400000      47.24100000 
H      48.23100000      40.19800000      47.48400000 
H      46.72900000      40.63000000      48.26100000 
H      46.86500000      40.70800000      46.51400000 
N      44.45200000      42.04500000      48.90700000 
C      44.10300000      40.78900000      49.53400000 
C      43.36800000      39.89800000      48.55300000 
O      42.87800000      40.39400000      47.49400000 
C      43.23700000      40.95100000      50.77500000 
C      41.96600000      41.72800000      50.50800000 
C      40.76800000      41.18500000      51.21700000 
O      39.74600000      41.94000000      51.29900000 
O      40.79800000      39.99400000      51.65000000 
H      43.77500000      42.47400000      48.31500000 
H      45.00200000      40.29400000      49.79900000 
H      42.97800000      39.97900000      51.14300000 
H      43.84500000      41.44400000      51.53700000 
H      42.07000000      42.76900000      50.77700000 
H      41.73600000      41.73400000      49.46000000 
N      43.27000000      38.68500000      48.87300000 
C      42.50200000      37.70200000      48.10400000 
C      41.54300000      36.98300000      48.99800000 
O      41.85700000      36.74100000      50.18200000 
C      43.43900000      36.70100000      47.45000000 
C      44.30300000      37.36600000      46.41200000 
C      45.27200000      36.40100000      45.80100000 
N      46.06900000      37.06600000      44.79100000 
C      47.05100000      36.50600000      44.14300000 
N      47.71500000      37.19900000      43.22000000 
N      47.42900000      35.25500000      44.40100000 
H      43.80000000      38.27800000      49.63000000 
H      41.96400000      38.25000000      47.34700000 
H      44.03600000      36.23500000      48.22100000 
H      42.83900000      35.91900000      46.97400000 
H      43.69200000      37.79100000      45.66000000 
H      44.86100000      38.18100000      46.88000000 
H      45.93100000      35.99900000      46.56900000 
H      44.74100000      35.56700000      45.35500000 
H      45.71400000      37.93900000      44.42200000 
H      47.40300000      38.11400000      42.98800000 
H      48.47100000      36.80700000      42.73300000 
H      46.90000000      34.69400000      45.05600000 
H      48.13700000      34.82900000      43.91500000 
N      40.40600000      36.57600000      48.45700000 
C      39.47300000      35.78000000      49.19900000 
C      39.08300000      34.55400000      48.44200000 
O      39.01000000      34.54100000      47.20200000 
C      38.19300000      36.55700000      49.54600000 
C      38.50700000      37.81400000      50.35200000 
C      37.22200000      38.52100000      50.75100000 
C      37.47700000      39.92700000      51.22400000 
N      38.29300000      39.94000000      52.46200000 
H      40.16200000      36.84800000      47.53200000 
H      39.94700000      35.49900000      50.11200000 
H      37.69400000      36.83900000      48.62700000 
H      37.54500000      35.91800000      50.10100000 
H      39.07900000      37.54100000      51.22500000 
H      39.11000000      38.47900000      49.76400000 
H      36.55500000      38.56800000      49.89700000 
H      36.70700000      37.94800000      51.52500000 
H      38.01900000      40.48400000      50.49200000 
H      36.53900000      40.44400000      51.44500000 
H      38.42100000      40.90100000      52.74800000 
H      37.88800000      39.39700000      53.19400000 
H      39.25900000      39.64500000      52.23300000 
N      39.95000000      38.75000000      44.10800000 
C      40.94500000      39.61100000      44.70000000 
C      40.29500000      40.89100000      45.11800000 
O      39.29600000      41.32600000      44.49500000 
C      42.02600000      39.93100000      43.68300000 
C      42.72600000      38.68200000      43.14200000 
C      43.83900000      39.09900000      42.21000000 
O      43.52700000      39.55100000      41.11500000 
O      45.03900000      38.99100000      42.66000000 
H      39.66300000      38.97700000      43.17800000 
H      41.37500000      39.10600000      45.55000000 
H      41.57900000      40.47500000      42.85200000 
H      42.75700000      40.57800000      44.15300000 
H      43.11900000      38.10400000      43.94100000 
H      42.01400000      38.08100000      42.59800000 
N      40.81300000      41.56700000      46.13200000 
C      40.29200000      42.87100000      46.49500000 
C      41.41300000      43.72200000      46.96900000 
O      42.07000000      43.38900000      47.98100000 
C      39.20300000      42.75400000      47.54200000 
O      38.11000000      42.00800000      46.98900000 
C      38.74500000      44.09900000      47.98300000 
H      41.56300000      41.17300000      46.68600000 
H      39.85100000      43.29700000      45.60600000 
H      39.57500000      42.19800000      48.37700000 
H      38.20200000      41.86800000      46.04300000 
H      37.84900000      44.01900000      48.59900000 
H      39.49700000      44.60200000      48.57300000 
H      38.50300000      44.73700000      47.13500000 
N      41.67400000      44.81200000      46.26600000 
C      42.82800000      45.63200000      46.54300000 
C      42.32400000      47.04000000      46.78300000 
O      41.65500000      47.59500000      45.92300000 
C      43.79300000      45.57600000      45.35300000 
C      44.03400000      44.13400000      44.96100000 
C      45.22100000      43.99500000      43.98600000 
C      45.43100000      42.53900000      43.63600000 
N      46.72000000      42.40100000      42.89700000 
H      41.13400000      45.03400000      45.47500000 
H      43.31100000      45.25100000      47.41600000 
H      43.37700000      46.13500000      44.53400000 
H      44.72100000      46.05000000      45.64600000 
H      44.22100000      43.54300000      45.82800000 
H      43.14700000      43.73600000      44.48600000 
H      45.02300000      44.56600000      43.09500000 
H      46.09500000      44.39300000      44.45700000 
H      45.51100000      41.93000000      44.51600000 
H      44.65000000      42.16000000      43.00500000 
H      46.83900000      41.44700000      42.57300000 
H      46.74300000      43.00900000      42.09100000 
H      47.50300000      42.63300000      43.48600000 
N      42.62800000      47.55900000      47.98900000 
C      42.04600000      48.84400000      48.35500000 
C      43.15100000      49.60800000      49.09300000 
O      43.66500000      49.18200000      50.02700000 
C      40.84400000      48.70200000      49.31600000 
C      40.10100000      50.01800000      49.39400000 
C      39.93800000      47.56200000      48.88700000 
H      43.13000000      47.08700000      48.61400000 
H      41.72300000      49.34600000      47.47000000 
H      41.24500000      48.45400000      50.28400000 
H      39.36400000      49.96500000      50.19600000 
H      40.73600000      50.84000000      49.56600000 
H      39.56400000      50.17700000      48.46300000 
H      39.10300000      47.50700000      49.56200000 
H      39.55100000      47.75900000      47.88700000 
H      40.44500000      46.63200000      48.88400000 
N      43.43200000      50.82100000      48.55300000 
C      44.45200000      51.65300000      49.13700000 
C      43.93400000      52.39200000      50.33400000 
O      42.71100000      52.68600000      50.45200000 
C      44.92600000      52.61800000      48.04600000 
O      45.56800000      51.76900000      47.10800000 
C      45.86100000      53.69900000      48.54200000 
H      42.95900000      51.14200000      47.76500000 
H      45.28100000      51.05800000      49.43000000 
H      44.05600000      53.07700000      47.59100000 
H      46.11000000      52.26300000      46.48100000 
H      46.23800000      54.23900000      47.70800000 
H      45.34700000      54.39200000      49.18700000 
H      46.69000000      53.27300000      49.08500000 
N      44.83700000      52.75200000      51.21900000 
C      44.56800000      53.59700000      52.36400000 
C      45.59400000      54.70100000      52.35900000 
O      46.78200000      54.43500000      52.14400000 
C      44.71400000      52.81500000      53.67000000 
H      45.78800000      52.47200000      51.09700000 
H      43.58600000      53.98400000      52.26300000 
H      44.49000000      53.40700000      54.49700000 
H      44.04100000      51.95700000      53.63100000 
H      45.73500000      52.43600000      53.73600000 
N      45.18900000      55.93000000      52.61700000 
C      46.12700000      57.02500000      52.64900000 
C      46.88200000      57.02800000      53.95300000 
O      48.12800000      56.97900000      53.97700000 
C      45.41600000      58.36500000      52.41100000 
C      46.42100000      59.46300000      52.32600000 
C      47.35100000      59.47500000      51.27100000 
C      46.49300000      60.46200000      53.27800000 
C      48.30400000      60.44100000      51.18700000 
C      47.47700000      61.45600000      53.17400000 
C      48.36100000      61.42500000      52.14100000 
O      49.35400000      62.39900000      52.02500000 
H      44.21200000      56.12600000      52.75800000 
H      46.85300000      56.86500000      51.88100000 
H      44.86500000      58.26900000      51.50400000 
H      44.71800000      58.55200000      53.21300000 
H      47.29400000      58.69800000      50.52700000 
H      45.80800000      60.47800000      54.08000000 
H      49.02600000      60.42800000      50.37400000 
H      47.52000000      62.23200000      53.92500000 
H      49.32800000      63.04700000      52.67400000 
N      44.95900000      55.47800000      56.85100000 
C      44.09900000      54.75100000      57.70200000 
C      44.80700000      53.54700000      58.27600000 
O      45.98100000      53.24500000      57.95400000 
C      42.82600000      54.33900000      57.00300000 
C      41.63900000      54.43700000      57.90000000 
O      41.40500000      55.48900000      58.51200000 
N      40.89200000      53.34400000      58.06300000 
H      45.00900000      55.26000000      55.87700000 
H      43.84500000      55.39300000      58.53200000 
H      42.64300000      55.04200000      56.18400000 
H      42.90600000      53.35200000      56.56200000 
H      40.09400000      53.37400000      58.64500000 
H      41.11300000      52.49900000      57.59800000 
N      44.08300000      52.79100000      59.10600000 
C      44.52100000      51.52600000      59.62600000 
C      44.83400000      51.59300000      61.09000000 
O      45.40500000      52.58100000      61.60100000 
H      43.16200000      53.08900000      59.35700000 
H      43.78200000      50.78100000      59.43100000 
H      45.43000000      51.26100000      59.11100000 
N      50.64800000      41.54800000      58.22000000 
C      50.26700000      42.40200000      57.09300000 
C      49.51900000      43.63100000      57.51100000 
O      48.67300000      43.60500000      58.44500000 
C      49.39600000      41.48100000      56.23700000 
C      49.96800000      40.11100000      56.53400000 
C      50.24800000      40.16400000      58.02000000 
H      51.15400000      42.70600000      56.56500000 
H      48.38900000      41.53600000      56.55200000 
H      49.46100000      41.76000000      55.19300000 
H      49.29400000      39.30800000      56.26900000 
H      50.90400000      39.95900000      55.99000000 
H      49.36400000      39.94600000      58.59200000 
H      51.02800000      39.48400000      58.30600000 
N      49.77300000      44.69400000      56.79200000 
C      49.24300000      46.02300000      57.05800000 
C      47.84800000      46.14400000      56.51000000 
O      47.52600000      46.93400000      55.59200000 
C      50.19500000      47.08600000      56.51500000 
C      50.37500000      48.21600000      57.50200000 
C      51.44700000      49.17100000      57.00800000 
C      49.09100000      48.95400000      57.75100000 
H      50.42100000      44.61600000      56.02600000 
H      49.16100000      46.12700000      58.12300000 
H      51.13200000      46.63500000      56.29200000 
H      49.79400000      47.48400000      55.59700000 
H      50.72000000      47.79000000      58.43700000 
H      51.52300000      50.05000000      57.64000000 
H      52.42000000      48.68800000      56.99900000 
H      51.23100000      49.49900000      56.00000000 
H      49.22900000      49.73300000      58.47100000 
H      48.71700000      49.38700000      56.84000000 
H      48.31200000      48.29000000      58.14000000 
N      46.94300000      45.34600000      57.07900000 
C      45.57200000      45.34300000      56.70300000 
C      44.90600000      46.61800000      57.19200000 
O      45.34600000      47.33900000      58.03800000 
C      44.90900000      44.10000000      57.29600000 
C      44.85000000      44.20700000      58.80500000 
C      43.54100000      43.85000000      56.68900000 
H      47.27300000      44.72600000      57.79300000 
H      45.50200000      45.31100000      55.63000000 
H      45.55800000      43.28400000      57.02000000 
H      44.50000000      43.27400000      59.23900000 
H      45.81200000      44.41000000      59.24000000 
H      44.16000000      44.98300000      59.10600000 
H      43.25800000      42.80900000      56.82600000 
H      42.78100000      44.45000000      57.16400000 
H      43.52500000      44.05300000      55.63900000 
N      43.71700000      46.84200000      56.59600000 
C      42.87200000      47.96800000      56.90500000 
C      42.45700000      48.03000000      58.35600000 
O      42.52300000      49.07700000      58.97300000 
C      41.65100000      47.80600000      56.01500000 
C      40.50700000      48.75300000      56.27600000 
C      40.73100000      50.11900000      55.69900000 
N      40.93800000      50.00000000      54.26200000 
C      41.26300000      51.00700000      53.50200000 
N      41.37800000      52.20600000      54.00900000 
N      41.48300000      50.81400000      52.20400000 
H      43.40400000      46.24400000      55.87300000 
H      43.39500000      48.89600000      56.71700000 
H      41.98500000      47.88400000      55.01100000 
H      41.30600000      46.79900000      56.17300000 
H      39.61000000      48.34900000      55.86000000 
H      40.33300000      48.86500000      57.35100000 
H      39.89600000      50.76400000      55.89000000 
H      41.62300000      50.57700000      56.13400000 
H      40.79400000      49.09200000      53.83600000 
H      41.20600000      52.38400000      54.95900000 
H      41.61500000      53.00000000      53.43100000 
H      41.38700000      49.90200000      51.81700000 
H      41.79100000      51.55600000      51.59900000 
N      41.93900000      46.91300000      58.88100000 
C      41.40700000      46.91100000      60.21600000 
C      41.68300000      45.55000000      60.82400000 
O      41.31700000      44.52400000      60.22600000 
C      39.91500000      47.17900000      60.19800000 
C      39.24600000      47.17400000      61.56800000 
C      37.75200000      47.46300000      61.47200000 
C      37.49800000      48.90300000      61.04100000 
N      36.03500000      49.14200000      60.92000000 
H      41.71300000      46.13300000      58.30000000 
H      41.90800000      47.67000000      60.79000000 
H      39.78900000      48.15300000      59.72800000 
H      39.44000000      46.44400000      59.56300000 
H      39.37300000      46.19200000      62.03100000 
H      39.73900000      47.89900000      62.22300000 
H      37.29900000      46.78700000      60.78400000 
H      37.29900000      47.31800000      62.45000000 
H      37.88300000      49.60100000      61.74900000 
H      37.91700000      49.10400000      60.06100000 
H      35.84600000      50.08300000      60.64500000 
H      35.61500000      48.52800000      60.24400000 
H      35.56200000      48.98200000      61.80900000 
N      40.21900000      42.60700000      58.32500000 
C      39.20300000      43.05400000      57.40500000 
C      39.69500000      44.21600000      56.61100000 
O      40.39400000      45.09500000      57.11400000 
C      37.95700000      43.50500000      58.17300000 
C      37.40500000      42.38100000      59.03400000 
C      36.18500000      42.74000000      59.87500000 
O      35.63600000      43.86900000      59.63400000 
O      35.81800000      41.92600000      60.69100000 
H      40.65500000      43.31900000      58.89400000 
H      38.95700000      42.22600000      56.76000000 
H      38.21800000      44.33700000      58.79500000 
H      37.20200000      43.81700000      57.48200000 
H      37.14900000      41.52100000      58.44000000 
H      38.16700000      42.04000000      59.74500000 
N      39.26300000      44.29500000      55.35000000 
C      39.50700000      45.43700000      54.49400000 
C      38.28400000      45.63500000      53.63400000 
O      38.08500000      44.83000000      52.69200000 
C      40.72700000      45.21100000      53.63700000 
C      41.03400000      46.37800000      52.76200000 
O      40.50200000      47.49400000      52.96800000 
N      41.89300000      46.19300000      51.76500000 
H      38.76600000      43.51700000      54.94400000 
H      39.64700000      46.28700000      55.11900000 
H      41.58600000      45.04400000      54.27800000 
H      40.59500000      44.32900000      53.02800000 
H      42.16000000      46.93800000      51.18900000 
H      42.27900000      45.30100000      51.59000000 
N      37.45900000      46.58100000      53.95600000 
C      36.21600000      46.84700000      53.25400000 
C      36.42100000      48.00700000      52.30800000 
O      36.86600000      47.74100000      51.15400000 
C      35.11300000      47.12900000      54.25300000 
C      33.79800000      47.42600000      53.59100000 
O      33.67100000      47.17400000      52.37700000 
O      32.87900000      47.91200000      54.33700000 
O      36.20500000      49.17800000      52.75200000 
H      37.68800000      47.20700000      54.70500000 
H      35.97600000      45.97900000      52.67300000 
H      34.98500000      46.27500000      54.90700000 
H      35.39000000      47.97300000      54.87000000 
H      45.50113801      37.37624159      52.34747729 
H      57.33624406      53.49020795      47.29860621 
H      51.40833123      54.48698754      51.06315470 
H      38.87091022      33.70927842      48.93338924 
H      40.26555664      37.90798902      44.07003265 
H      46.38385399      57.06979073      54.81908550 
H      44.72942110      56.34812848      56.86403671 
H      44.58509330      50.83257146      61.68982822 
H      51.54384558      41.46527289      58.24483779 
H      42.15724284      45.48134172      61.70171281 
H      39.86265327      42.01501003      58.90168439 
