703
Properties=species:S:1:pos:R:3 pbc="F F F"
N      31.69500000      30.20200000      20.65200000 
C      30.39400000      29.85000000      21.57200000 
C      30.49200000      30.78600000      22.57300000 
O      29.21800000      31.32600000      23.17600000 
C      30.80600000      28.65300000      21.66100000 
C      30.37100000      27.81100000      20.74100000 
C      29.65900000      28.02900000      23.09600000 
C      30.53600000      26.13700000      20.55700000 
H      32.13600000      29.92600000      20.31800000 
H      29.43800000      30.06200000      20.93900000 
H      31.70800000      28.46600000      22.15300000 
H      29.31400000      27.65300000      20.36000000 
H      30.93900000      28.13400000      19.70500000 
H      29.84800000      27.14100000      23.21400000 
H      29.94800000      28.75800000      23.93600000 
H      28.69200000      28.30500000      22.73300000 
H      30.79800000      25.77600000      20.07200000 
H      31.97400000      26.21800000      21.14200000 
H      30.24900000      25.74200000      21.55600000 
N      28.84400000      34.49600000      21.73900000 
C      27.48900000      34.03700000      21.38200000 
C      26.43800000      33.89700000      22.92900000 
O      25.70500000      34.46900000      23.08400000 
C      27.26000000      32.87500000      20.60800000 
H      29.37900000      33.47800000      21.31100000 
H      27.07200000      35.05600000      21.20200000 
H      25.78400000      33.05800000      20.38100000 
H      27.50500000      33.28300000      19.64100000 
H      27.39500000      32.13500000      20.99500000 
N      27.51100000      33.17400000      23.44100000 
C      26.58100000      33.01000000      25.13400000 
C      26.59600000      34.31400000      25.76400000 
O      25.59000000      34.65600000      26.46800000 
H      28.01300000      32.77700000      23.58800000 
H      25.65100000      32.63400000      24.96000000 
H      27.30600000      32.30500000      25.61400000 
N      23.72300000      36.57500000      24.60200000 
C      22.43700000      35.88000000      25.10900000 
C      22.70100000      36.22100000      26.22200000 
O      20.92800000      37.14100000      26.89100000 
C      22.49400000      34.24800000      25.12900000 
C      22.05300000      33.81000000      23.92600000 
C      22.41200000      33.85500000      22.75900000 
C      20.72500000      32.77600000      24.12500000 
C      21.96000000      33.26800000      21.62300000 
C      20.19300000      31.98900000      22.76500000 
C      20.83100000      32.51200000      21.54200000 
H      24.62900000      35.33100000      24.17800000 
H      21.74200000      36.14200000      24.54000000 
H      23.48200000      33.92700000      25.41100000 
H      21.73000000      34.04800000      26.06400000 
H      23.35700000      34.58300000      22.71000000 
H      20.39600000      32.57900000      24.98400000 
H      22.43400000      33.50600000      20.66100000 
H      19.69400000      31.65400000      22.96700000 
H      20.49500000      31.98700000      20.77600000 
N      23.31500000      36.57300000      27.72400000 
C      23.15900000      36.68400000      28.47400000 
C      22.94600000      38.43100000      28.76800000 
O      22.17500000      38.79200000      29.32900000 
C      24.69800000      36.72800000      29.34000000 
C      24.49000000      37.01300000      30.63800000 
C      24.27800000      36.22500000      31.87600000 
C      24.79000000      38.34700000      31.60800000 
N      24.22300000      36.75300000      33.04300000 
C      24.66000000      38.31000000      32.33000000 
C      25.33200000      39.39000000      30.86500000 
C      25.03000000      39.46700000      33.48700000 
C      25.41800000      40.47200000      31.62800000 
C      25.10300000      40.10200000      33.05200000 
H      24.25900000      35.84200000      26.91400000 
H      22.52200000      36.43600000      29.12200000 
H      24.76000000      35.45200000      29.34200000 
H      25.20300000      36.92300000      28.99400000 
H      23.90300000      35.16800000      31.89000000 
H      23.93500000      36.60100000      33.97400000 
H      25.36300000      39.56300000      29.80100000 
H      24.72800000      39.22200000      34.65800000 
H      25.82700000      41.56800000      31.14000000 
H      25.49800000      41.40100000      33.62200000 
N      21.10600000      40.02300000      26.54300000 
C      20.04100000      40.29900000      25.90000000 
C      18.90300000      39.89100000      27.61200000 
O      18.44700000      40.70500000      27.61100000 
C      19.58700000      39.33600000      24.99700000 
C      17.98400000      39.57000000      24.68900000 
C      20.14600000      39.68600000      23.92500000 
H      21.98700000      39.02300000      25.94400000 
H      19.79200000      41.23800000      25.86200000 
H      19.61200000      38.34700000      25.33600000 
H      17.68000000      39.13200000      23.89600000 
H      17.37100000      39.37000000      25.63400000 
H      17.85100000      40.71000000      24.46200000 
H      19.88400000      39.01400000      22.80600000 
H      20.16700000      40.78200000      23.41600000 
H      21.47600000      39.41500000      23.92300000 
N      19.18000000      39.34900000      28.15000000 
C      18.46900000      38.79100000      29.31600000 
C      18.73600000      40.04600000      30.17600000 
O      17.63900000      40.58200000      30.78100000 
C      18.91800000      37.24700000      30.02700000 
O      20.16500000      37.17400000      29.93700000 
H      20.19600000      38.19700000      27.83900000 
H      17.41700000      38.76400000      29.07300000 
H      18.57100000      37.79100000      31.18600000 
H      18.40100000      36.97700000      29.79500000 
H      20.89400000      37.84300000      29.97100000 
N      16.91400000      43.03900000      28.67400000 
C      15.53900000      42.86800000      28.72600000 
C      14.79800000      43.55700000      30.23800000 
O      14.18700000      43.97800000      30.50000000 
C      14.77100000      41.81600000      28.37100000 
C      15.25100000      41.42300000      26.89900000 
C      14.80200000      40.06200000      26.55600000 
C      14.08800000      42.60100000      26.00300000 
H      17.32500000      42.32000000      28.39800000 
H      14.90800000      43.90400000      28.26400000 
H      15.51300000      40.91700000      28.92700000 
H      13.94700000      41.64400000      28.57800000 
H      16.09300000      41.67800000      26.64100000 
H      14.85100000      39.89900000      25.46500000 
H      15.32700000      39.46100000      27.06800000 
H      13.72000000      39.92200000      26.75400000 
H      14.35800000      42.28500000      25.06900000 
H      13.41100000      42.40000000      26.24400000 
H      14.56900000      43.40600000      26.19200000 
N      15.56100000      35.52300000      33.26700000 
C      15.51500000      35.97300000      32.28400000 
C      17.39800000      35.19400000      31.66600000 
O      17.15900000      34.90800000      31.02000000 
C      15.48000000      37.60300000      31.99000000 
C      14.39400000      37.92300000      31.55100000 
C      13.01400000      37.50300000      32.22800000 
C      14.36400000      39.44100000      31.16900000 
H      15.24100000      36.90800000      34.40600000 
H      15.07900000      35.54900000      31.60800000 
H      15.96900000      38.05200000      32.64800000 
H      16.46300000      37.72800000      30.90600000 
H      14.13500000      37.49300000      30.37400000 
H      12.26500000      37.74800000      31.97200000 
H      13.10700000      36.32900000      32.32900000 
H      13.37800000      37.80400000      33.33200000 
H      13.34300000      39.81800000      30.83600000 
H      14.26100000      39.82400000      32.27000000 
H      14.93700000      39.80600000      30.81400000 
N      17.90200000      35.61700000      32.65400000 
C      19.23300000      34.95400000      32.31600000 
C      19.18900000      33.46900000      32.34700000 
O      19.78100000      32.81400000      31.22400000 
C      20.42600000      35.18900000      33.50800000 
C      20.91300000      36.52900000      33.70800000 
C      21.90600000      36.68800000      34.87300000 
O      22.35600000      36.15600000      35.21400000 
N      20.98400000      37.56400000      35.83900000 
H      17.98500000      36.11200000      33.59900000 
H      19.79600000      35.30500000      31.58800000 
H      19.74100000      34.84100000      34.57600000 
H      21.04000000      34.43300000      33.56200000 
H      21.49300000      36.64900000      32.94800000 
H      20.03900000      37.24500000      33.46600000 
H      20.20600000      38.05700000      35.61000000 
H      21.43800000      37.78100000      36.66100000 
N      18.35500000      32.74700000      33.03300000 
C      18.09400000      31.25200000      33.20000000 
C      17.13300000      31.01800000      31.59200000 
O      17.71800000      30.02900000      31.19900000 
C      17.72200000      30.84700000      33.97200000 
C      18.53400000      30.97800000      35.48400000 
C      19.89200000      29.76600000      35.76600000 
O      20.10800000      29.71600000      34.14600000 
O      19.92500000      29.68300000      36.14600000 
H      17.90700000      33.39500000      33.77400000 
H      19.09300000      30.93000000      32.86400000 
H      16.49000000      31.37900000      34.45600000 
H      17.26700000      29.83900000      34.04100000 
H      18.78900000      31.81300000      35.50900000 
H      18.00200000      30.67700000      36.27700000 
N      16.58000000      31.83500000      31.51100000 
C      15.48000000      31.50700000      30.06600000 
C      16.69500000      31.73800000      29.21100000 
O      16.48000000      30.72200000      27.97200000 
C      14.70000000      32.68600000      30.06500000 
C      13.74800000      32.91700000      28.54900000 
C      13.18900000      32.33000000      30.99000000 
H      16.11000000      32.66900000      32.03100000 
H      15.29400000      30.64900000      30.14900000 
H      14.92400000      33.47800000      30.29500000 
H      13.25500000      33.17400000      28.63000000 
H      14.70000000      32.96600000      27.97500000 
H      13.66900000      31.50400000      28.33700000 
H      12.75300000      32.90400000      31.02700000 
H      13.02700000      31.36000000      30.81400000 
H      13.88000000      32.20700000      32.18200000 
N      17.50500000      32.53400000      28.97200000 
C      18.46700000      32.61000000      27.87100000 
C      19.51000000      31.45700000      27.73400000 
O      19.87500000      31.30300000      27.22800000 
C      19.05700000      34.26900000      27.88800000 
C      18.24500000      34.93400000      27.30900000 
C      17.03500000      35.67200000      27.73100000 
C      18.34200000      35.51200000      25.68300000 
C      16.17600000      36.45700000      27.30100000 
C      17.54600000      36.13800000      25.39200000 
C      16.80600000      36.61500000      25.45200000 
H      17.51400000      33.34600000      29.90400000 
H      17.99400000      32.56200000      27.07800000 
H      19.29700000      34.48200000      28.97100000 
H      20.12800000      33.97900000      27.32600000 
H      16.91400000      35.37700000      28.76500000 
H      19.30900000      34.88500000      25.38900000 
H      15.48100000      36.86800000      27.54700000 
H      17.86100000      36.43400000      24.11200000 
H      15.82200000      37.45700000      25.20100000 
N      19.84100000      31.13600000      29.26900000 
C      20.69900000      30.04700000      29.17100000 
C      20.04300000      28.54000000      28.47800000 
O      20.42700000      28.08800000      27.82100000 
C      21.00500000      29.34700000      30.56100000 
C      21.41300000      28.09300000      30.82400000 
C      22.17000000      27.98000000      32.12500000 
N      23.61300000      28.53900000      32.35400000 
C      23.60800000      29.20800000      33.36900000 
N      22.98800000      29.47000000      34.49000000 
N      25.37100000      29.95000000      33.56000000 
H      19.55400000      31.52700000      29.97400000 
H      21.53800000      30.01600000      28.67600000 
H      21.63300000      30.29800000      31.07700000 
H      20.05900000      29.54500000      31.24900000 
H      20.97300000      27.54200000      30.55200000 
H      22.54200000      28.08400000      30.01000000 
H      21.44200000      28.24300000      32.80700000 
H      22.32600000      26.66500000      32.23400000 
H      24.09100000      28.66200000      31.45700000 
H      21.93800000      29.27700000      34.31700000 
H      23.14100000      30.59700000      34.89600000 
H      25.73100000      29.19100000      33.41100000 
H      25.21300000      30.21200000      34.26600000 
N      18.79400000      28.56100000      28.72400000 
C      17.96500000      27.64000000      28.37100000 
C      17.93200000      27.91600000      26.61800000 
O      17.98700000      26.96100000      25.87700000 
C      16.43100000      27.66300000      28.83200000 
C      15.36800000      26.52200000      27.73900000 
C      15.60900000      25.49700000      27.84400000 
C      14.67200000      27.34400000      27.00600000 
C      14.81400000      24.83300000      27.09400000 
C      13.72000000      26.59000000      26.27300000 
C      13.99500000      25.11000000      26.37200000 
H      18.12800000      29.15200000      29.46800000 
H      18.41100000      26.52300000      28.22500000 
H      16.57300000      27.23500000      29.63200000 
H      16.10400000      28.58900000      28.71700000 
H      16.36000000      24.82600000      28.53600000 
H      14.55400000      28.25900000      27.06600000 
H      14.90300000      23.46300000      27.09000000 
H      13.15200000      26.99100000      25.66500000 
H      13.19500000      24.56600000      25.58300000 
N      17.55400000      28.73400000      26.01500000 
C      17.65200000      29.48900000      24.81100000 
C      19.06000000      28.87100000      24.42800000 
O      18.91600000      28.63200000      23.10200000 
C      17.05200000      30.90600000      24.79900000 
H      17.30200000      29.83900000      27.03000000 
H      16.75200000      28.69700000      24.34200000 
H      17.06000000      31.04000000      23.48500000 
H      16.20500000      31.00400000      25.07300000 
H      17.86800000      31.34300000      25.04600000 
N      19.76300000      29.35100000      24.75300000 
C      21.23200000      29.23300000      24.33900000 
C      21.55800000      27.57900000      24.27900000 
O      22.06200000      27.29200000      23.00900000 
C      22.51300000      29.57200000      25.32100000 
C      23.63500000      30.06600000      24.45300000 
C      23.60700000      30.61300000      23.24400000 
C      24.80300000      29.34500000      24.98700000 
C      24.85500000      30.55500000      22.69400000 
C      25.73200000      29.61100000      24.17600000 
C      25.67000000      30.04900000      23.10700000 
O      27.17800000      30.19800000      22.23900000 
H      19.77400000      29.81200000      25.69100000 
H      21.24700000      29.58900000      23.28000000 
H      21.90100000      30.87300000      25.46600000 
H      22.38000000      29.39000000      25.98700000 
H      22.81500000      31.05800000      22.90000000 
H      24.76000000      28.84900000      25.94100000 
H      24.83000000      31.35000000      21.40100000 
H      27.01200000      28.97600000      24.73300000 
H      27.98900000      30.53500000      22.60600000 
N      21.01200000      26.87800000      25.36800000 
C      21.46600000      25.45200000      24.94000000 
C      20.38000000      25.16200000      23.97700000 
O      21.06200000      24.09000000      22.76100000 
C      20.60500000      24.70000000      26.03400000 
C      19.98800000      23.27500000      25.77300000 
C      21.35400000      22.45700000      25.84100000 
C      19.05900000      23.33400000      25.53800000 
C      20.68600000      21.08800000      25.06300000 
C      18.37100000      21.74100000      24.61500000 
C      19.78900000      20.84600000      24.71800000 
O      19.16700000      19.95400000      24.00800000 
H      20.71900000      27.28800000      25.89900000 
H      22.10600000      25.18300000      24.85800000 
H      21.38000000      24.85400000      27.06000000 
H      19.67000000      25.35700000      26.62200000 
H      22.21600000      22.45100000      26.19000000 
H      18.13900000      23.87500000      25.48300000 
H      21.61700000      20.29500000      25.21700000 
H      17.66500000      21.78100000      24.34500000 
H      19.92700000      19.00500000      24.13700000 
N      19.24400000      25.23500000      23.22900000 
C      18.48600000      25.21300000      22.63900000 
C      19.18900000      25.44400000      21.09000000 
O      19.20200000      24.55700000      20.22100000 
C      17.10700000      25.76900000      22.64100000 
C      16.08300000      24.97000000      23.46400000 
C      15.51400000      23.78100000      23.10400000 
C      14.46700000      23.79400000      22.04100000 
N      14.01200000      22.56200000      21.10600000 
H      18.76000000      26.24600000      24.37800000 
H      18.37200000      23.90100000      22.48100000 
H      17.16600000      26.69800000      22.67500000 
H      16.60900000      25.67700000      21.47800000 
H      16.66900000      24.91800000      24.38500000 
H      15.39100000      25.54000000      23.64700000 
H      16.51700000      23.13600000      22.44300000 
H      15.36200000      23.09600000      23.74200000 
H      13.60800000      24.06700000      22.61800000 
H      14.71000000      24.68000000      21.39100000 
H      13.52400000      22.75400000      20.80200000 
H      15.10300000      22.40000000      20.75500000 
H      14.04600000      21.84200000      21.85700000 
N      19.66100000      26.55600000      21.07900000 
C      20.15300000      26.88100000      19.93300000 
C      21.19500000      26.47200000      19.52800000 
O      21.93200000      25.76400000      18.36300000 
C      20.71700000      28.60800000      20.02600000 
C      19.72000000      29.39400000      19.19800000 
C      19.46500000      29.17700000      17.60700000 
C      18.08900000      28.80700000      19.94700000 
H      19.48500000      27.30400000      21.91900000 
H      19.78900000      26.87000000      19.08300000 
H      20.62100000      28.82800000      20.78500000 
H      21.39400000      28.74000000      19.43100000 
H      19.67800000      30.36700000      19.38400000 
H      18.84000000      29.72300000      17.22700000 
H      20.37400000      29.33600000      17.36400000 
H      19.21900000      28.14100000      17.49600000 
H      17.23800000      29.81900000      19.25400000 
H      17.83400000      28.19900000      19.60400000 
H      18.09000000      29.22800000      20.81800000 
N      22.41400000      25.95800000      20.85500000 
C      23.42600000      25.25000000      20.56300000 
C      23.26500000      23.56000000      19.89900000 
O      23.76100000      23.33800000      19.43200000 
C      24.36500000      25.07900000      21.80000000 
C      25.12000000      26.49700000      22.13900000 
C      25.40400000      25.94400000      23.48400000 
C      26.07300000      26.62600000      20.99500000 
H      22.01700000      26.34600000      21.65000000 
H      24.14600000      25.60300000      19.68800000 
H      23.59700000      24.85500000      22.71300000 
H      25.00200000      24.31900000      21.63900000 
H      24.37400000      27.11700000      22.22200000 
H      26.60500000      27.19700000      23.72300000 
H      25.16800000      25.94700000      24.13700000 
H      26.58000000      25.12400000      23.26600000 
H      26.65500000      27.60500000      21.33000000 
H      26.70800000      25.96500000      20.83500000 
H      25.54500000      27.02000000      20.04600000 
N      22.06200000      23.24200000      20.56800000 
C      21.66700000      21.94500000      20.18800000 
C      21.37500000      21.61900000      18.67200000 
O      21.46400000      21.02200000      18.12600000 
C      20.56900000      21.24600000      21.09800000 
C      20.41700000      19.92400000      20.94700000 
C      21.64000000      19.05900000      20.98400000 
C      21.61900000      17.69800000      20.26400000 
N      22.17400000      18.04200000      19.08300000 
H      21.49200000      23.75200000      21.28100000 
H      22.68300000      21.22100000      20.18600000 
H      21.00500000      21.43400000      22.16500000 
H      19.79500000      21.82500000      21.04000000 
H      19.59500000      19.53300000      21.45000000 
H      20.09600000      19.63800000      19.84600000 
H      22.45400000      19.53100000      21.20100000 
H      21.49900000      18.57600000      22.25400000 
H      22.44600000      17.05400000      20.87100000 
H      20.78000000      17.20300000      20.17600000 
H      22.07800000      17.43000000      18.56200000 
H      22.17000000      19.07500000      18.77300000 
H      23.51700000      18.19400000      19.06100000 
N      20.52100000      22.88900000      18.21500000 
C      20.24700000      22.71300000      16.93400000 
C      21.22300000      23.20100000      16.17900000 
O      21.46100000      22.51400000      15.01600000 
C      19.14800000      24.27500000      16.72900000 
C      17.55800000      23.66400000      17.70400000 
C      17.11200000      25.23900000      17.58300000 
C      16.08700000      24.76000000      18.55100000 
N      14.89500000      26.21300000      18.45500000 
H      20.27500000      23.60200000      19.02600000 
H      19.62200000      22.02000000      16.62900000 
H      19.71700000      25.09700000      17.29500000 
H      19.02600000      24.32900000      15.79200000 
H      17.31800000      23.22100000      16.93000000 
H      18.02800000      23.51600000      18.32900000 
H      17.64600000      25.86500000      18.23500000 
H      16.83000000      25.59800000      16.72400000 
H      15.07000000      24.27900000      17.83200000 
H      15.94200000      24.54800000      19.20800000 
H      14.21700000      26.06300000      19.15300000 
H      15.64800000      26.80100000      19.22700000 
H      14.87900000      26.62300000      17.93800000 
N      22.24000000      24.00400000      16.57300000 
C      23.45500000      24.17000000      15.73700000 
C      24.20900000      22.91900000      15.66600000 
O      24.58700000      22.62900000      14.70600000 
C      24.21300000      25.26000000      16.34900000 
H      22.06600000      24.51200000      17.31600000 
H      23.13500000      24.51400000      14.68800000 
H      25.20600000      25.52300000      15.76700000 
H      23.58700000      26.34400000      16.46300000 
H      24.57000000      24.99500000      17.53000000 
N      24.33600000      22.41000000      16.81900000 
C      25.42800000      21.05400000      17.15500000 
C      24.92300000      20.08900000      15.53000000 
O      25.60600000      19.79400000      15.18500000 
C      25.00000000      20.50400000      18.16500000 
C      25.52100000      19.13300000      18.44200000 
O      26.55900000      18.67400000      18.36600000 
O      24.64500000      18.23700000      19.07700000 
H      24.10100000      22.58800000      17.52000000 
H      26.28300000      21.47600000      16.61000000 
H      25.12200000      21.23900000      18.79600000 
H      23.91500000      20.44000000      18.11000000 
N      23.86200000      19.80800000      15.58000000 
C      23.42800000      19.11900000      14.63100000 
C      23.61200000      19.11100000      13.32500000 
O      23.56900000      18.37400000      12.49000000 
C      21.73100000      18.28700000      14.90500000 
C      20.83400000      19.21700000      14.51600000 
C      19.50300000      19.09700000      15.17100000 
O      19.28800000      18.02300000      15.68200000 
O      18.69600000      20.12500000      15.11900000 
H      22.90900000      20.17400000      16.33700000 
H      23.99500000      17.75700000      14.96400000 
H      21.62100000      17.44400000      14.47800000 
H      21.69700000      17.97900000      15.97300000 
H      21.20200000      20.38600000      14.91500000 
H      20.74500000      19.41700000      13.60500000 
N      29.38400000      18.44500000      24.01600000 
C      28.69000000      18.60000000      24.56000000 
C      28.82900000      19.19300000      26.22100000 
O      28.58100000      20.25200000      26.71800000 
C      27.26600000      17.71400000      24.88500000 
C      26.01900000      18.45600000      25.59600000 
C      27.77000000      16.44200000      25.71500000 
C      24.93300000      17.64700000      25.46500000 
H      29.44100000      17.29000000      23.86500000 
H      28.08600000      19.54300000      24.35600000 
H      27.11600000      17.46100000      24.01500000 
H      26.29100000      18.59800000      26.64200000 
H      25.95100000      19.28400000      25.17100000 
H      27.00800000      15.82200000      25.74300000 
H      28.65900000      16.05200000      25.31600000 
H      27.86300000      16.71500000      26.78000000 
H      23.96900000      18.14300000      25.76900000 
H      24.70200000      17.27100000      24.37500000 
H      24.91000000      16.58600000      26.10100000 
N      31.09100000      22.28500000      25.44900000 
C      29.87300000      23.51100000      25.18400000 
C      29.48600000      24.06400000      26.43400000 
O      29.17500000      25.17300000      26.78700000 
C      28.93800000      23.26900000      24.32800000 
C      29.13200000      23.23600000      22.90300000 
S      27.92700000      22.96300000      21.75300000 
C      27.04300000      21.45400000      22.36200000 
H      30.77900000      21.67700000      25.11600000 
H      30.52700000      24.33400000      24.90100000 
H      28.39700000      21.95200000      24.68100000 
H      27.96800000      23.81500000      24.37600000 
H      29.78600000      23.95900000      22.54300000 
H      29.96000000      22.12800000      22.59200000 
H      26.00400000      21.36500000      21.78400000 
H      27.43700000      20.81600000      22.51300000 
H      26.48500000      21.83800000      23.42500000 
N      30.18800000      27.52200000      27.73100000 
C      28.63500000      28.69400000      28.00600000 
C      28.65600000      29.08700000      29.50600000 
O      28.41600000      29.95000000      29.51200000 
C      27.57600000      27.63100000      27.49400000 
O      26.41400000      28.47000000      27.81500000 
H      29.94900000      26.73000000      27.79100000 
H      28.88700000      29.20200000      27.38200000 
H      27.70800000      27.34900000      26.41400000 
H      27.61300000      26.66200000      28.15100000 
H      26.32400000      29.24000000      27.28400000 
N      28.84300000      28.07300000      30.05000000 
C      28.72900000      28.61300000      31.72400000 
C      29.84500000      29.49500000      31.91800000 
O      29.54600000      30.79900000      32.60900000 
H      29.01800000      27.26300000      30.12700000 
H      27.65800000      29.13300000      31.93900000 
H      28.89000000      27.72100000      32.32700000 
N      28.82500000      32.55100000      30.37800000 
C      27.77900000      34.04100000      31.06000000 
C      28.67800000      34.40500000      32.44400000 
O      28.40600000      35.22900000      32.58500000 
C      26.62000000      32.73600000      31.68300000 
C      25.46100000      32.55600000      30.81800000 
C      26.20000000      32.44500000      29.44200000 
C      24.62200000      32.71800000      31.22900000 
C      24.80400000      32.09800000      27.96700000 
C      23.40800000      32.42400000      29.95100000 
C      23.43500000      32.30900000      29.20200000 
H      28.81500000      32.04900000      30.17700000 
H      27.64200000      34.28800000      30.66700000 
H      27.23900000      31.71500000      31.91200000 
H      26.41700000      33.20400000      32.46200000 
H      26.77600000      32.28500000      28.91400000 
H      24.21600000      32.82900000      32.03000000 
H      24.98700000      32.00800000      27.56700000 
H      22.20300000      32.55800000      30.66500000 
H      22.66600000      32.15000000      28.14500000 
N      28.50200000      30.59700000      37.69600000 
C      27.65800000      30.73600000      36.16600000 
C      28.94100000      29.41300000      35.56700000 
O      27.97900000      28.71000000      34.50500000 
C      28.03900000      31.97500000      35.26000000 
C      27.00400000      32.71000000      35.63800000 
N      26.97600000      33.56900000      36.89200000 
C      25.68300000      32.90700000      35.09800000 
C      25.51800000      34.56700000      37.27500000 
N      25.04600000      33.72500000      35.98300000 
H      28.86300000      31.56200000      37.74300000 
H      27.00800000      30.26000000      36.13000000 
H      29.00400000      32.35900000      35.53600000 
H      27.98400000      31.71200000      34.36900000 
H      27.78900000      33.63600000      37.51500000 
H      25.27000000      32.57300000      34.41600000 
H      25.59700000      34.81400000      37.67700000 
N      27.20500000      26.20000000      36.75500000 
C      25.86200000      26.07300000      36.37000000 
C      25.60000000      25.80600000      34.96100000 
O      24.89800000      24.92100000      34.57300000 
C      25.12200000      27.48600000      36.42400000 
C      24.73400000      27.93600000      37.82400000 
C      24.53300000      26.80300000      39.11200000 
C      24.62700000      28.88500000      38.73900000 
N      24.23000000      27.64800000      39.84500000 
C      24.20000000      28.97500000      39.91700000 
C      24.69200000      30.55300000      37.91800000 
C      24.14200000      29.90800000      40.64900000 
C      24.56400000      31.40300000      38.93600000 
C      24.27500000      31.13400000      40.03300000 
H      27.55400000      27.28600000      37.09500000 
H      25.44200000      25.56500000      36.78800000 
H      25.75500000      28.30800000      36.14200000 
H      24.17300000      27.51400000      35.90700000 
H      24.53900000      25.86800000      38.89600000 
H      23.94700000      27.05600000      41.05100000 
H      24.90300000      30.55600000      37.07000000 
H      23.88800000      29.81800000      41.61900000 
H      24.62100000      32.50500000      38.48200000 
H      24.12900000      32.18300000      40.92100000 
N      26.66800000      26.41100000      33.79300000 
C      26.42300000      26.17100000      32.49800000 
C      26.81200000      24.36700000      32.45200000 
O      26.12700000      23.82000000      31.72600000 
H      27.25500000      27.08000000      34.30100000 
H      25.53200000      26.12500000      32.31400000 
H      27.01400000      26.48100000      32.14400000 
N      23.87900000      22.39300000      33.89000000 
C      22.40200000      22.58200000      33.36700000 
C      22.62000000      21.94800000      31.93200000 
O      21.49500000      21.24000000      31.70300000 
C      22.56100000      24.28300000      32.35100000 
C      21.48000000      24.57800000      32.27100000 
C      21.23000000      24.30300000      30.71300000 
C      20.24500000      25.06700000      32.30700000 
C      19.88800000      24.60600000      29.75200000 
C      19.07300000      25.44600000      32.15900000 
C      19.15200000      25.08400000      30.70200000 
H      24.51400000      23.44900000      34.12800000 
H      21.95300000      22.61300000      33.66800000 
H      22.64000000      24.95700000      33.71300000 
H      23.39100000      24.42900000      32.10500000 
H      22.09500000      23.88100000      30.02800000 
H      20.35700000      25.28000000      33.83100000 
H      19.95400000      24.50000000      29.12700000 
H      18.30000000      25.81700000      32.46900000 
H      17.83100000      25.42900000      30.01700000 
N      23.37400000      21.70500000      31.05600000 
C      23.64500000      21.05200000      30.11800000 
C      23.08000000      19.76500000      30.22300000 
O      22.38000000      18.94000000      29.50200000 
C      24.76300000      21.11800000      29.05700000 
C      24.81400000      22.47400000      28.15700000 
C      24.68200000      23.64600000      28.94200000 
C      25.15300000      22.56100000      27.08200000 
C      24.76900000      24.87400000      28.27000000 
C      25.38500000      23.49600000      26.40500000 
C      25.23100000      24.84900000      26.72900000 
H      24.60800000      22.40600000      31.49700000 
H      22.48000000      21.53000000      29.30400000 
H      25.51900000      21.05700000      29.72800000 
H      24.67500000      20.37400000      28.38600000 
H      24.34400000      23.80100000      30.01800000 
H      25.36900000      21.45600000      26.50200000 
H      24.73000000      25.68700000      28.58600000 
H      25.73000000      23.55900000      25.14300000 
H      25.38200000      25.75300000      26.24700000 
N      19.81700000      19.19700000      31.67200000 
C      18.85200000      19.55200000      30.50400000 
C      18.98500000      18.02700000      29.67300000 
O      17.46400000      17.42600000      29.37900000 
C      19.58400000      20.35200000      29.50300000 
S      18.46200000      20.81900000      28.00400000 
H      20.39800000      19.68600000      31.64800000 
H      17.78800000      19.54200000      30.77500000 
H      19.40300000      21.32400000      30.10500000 
H      20.32700000      20.22700000      29.29000000 
H      19.20400000      21.00500000      27.37300000 
N      19.60100000      17.41500000      29.39700000 
C      19.64600000      16.38800000      28.66500000 
C      19.26900000      14.80700000      29.17900000 
O      19.02300000      14.35700000      28.82200000 
C      21.29500000      15.98400000      27.51000000 
C      21.20400000      17.15800000      26.82700000 
C      20.62100000      17.32300000      25.84200000 
O      19.52300000      16.97500000      25.62600000 
O      20.77000000      17.89500000      24.79400000 
H      20.69900000      17.88600000      29.63700000 
H      19.01400000      16.36000000      27.68200000 
H      22.01500000      15.90200000      28.60800000 
H      20.96200000      15.25000000      27.27900000 
H      21.59300000      18.10700000      27.39100000 
H      22.65200000      16.90600000      26.35900000 
N      19.25900000      24.04800000      39.91400000 
C      20.35300000      25.23800000      39.57300000 
C      19.71300000      26.45900000      39.48300000 
O      20.25400000      27.57400000      39.93500000 
C      20.47200000      24.57400000      38.13500000 
C      21.49800000      25.89100000      37.35600000 
C      21.54500000      23.56700000      38.32500000 
H      18.99600000      23.51900000      39.61500000 
H      21.10800000      25.25900000      40.11700000 
H      19.72200000      24.50200000      37.58700000 
H      21.69600000      25.48500000      36.40500000 
H      20.62500000      26.76100000      37.13100000 
H      22.21500000      26.17300000      37.84300000 
H      21.79900000      23.16000000      37.19500000 
H      22.41000000      23.73900000      38.61300000 
H      21.10100000      22.77700000      38.69200000 
N      20.85200000      30.13200000      41.88000000 
C      20.87100000      31.12600000      40.80300000 
C      20.08900000      32.37700000      41.94200000 
O      20.98400000      33.28200000      42.54400000 
C      20.38500000      31.37000000      39.90300000 
C      21.45700000      32.52000000      38.74400000 
N      21.73100000      33.58200000      39.26600000 
C      21.65100000      32.30500000      37.65900000 
C      22.09200000      33.88200000      38.56200000 
N      22.31200000      33.64700000      37.33800000 
H      20.17400000      29.18600000      40.95700000 
H      21.99200000      31.37800000      41.22500000 
H      20.84800000      30.26000000      39.16600000 
H      19.62400000      31.34100000      39.56900000 
H      21.55200000      31.49900000      36.73800000 
H      22.85200000      35.39600000      38.56700000 
H      22.85700000      33.77400000      36.51700000 
H      31.44150984      30.71389298      19.95650858 
H      31.39140930      31.09273324      22.88441232 
H      29.02537139      35.26327026      21.30494843 
H      27.38211542      34.91971450      25.64098581 
H      23.52029253      37.11476953      23.91094390 
H      23.59304158      39.08619506      28.37805561 
H      21.60396785      40.76725533      26.63306672 
H      19.66453974      40.40826222      30.25711745 
H      17.11215093      43.70930842      28.10705835 
H      15.24107756      43.41227053      31.12272349 
H      14.93477904      34.87992882      33.33262602 
H      23.86457327      19.95422594      12.85047208 
H      29.24962782      18.86381601      23.23080113 
H      29.17197610      18.58906665      26.94046640 
H      31.86312435      22.54032042      25.06346730 
H      29.43451849      23.48046411      27.24445389 
H      30.53519243      27.67008027      26.91397512 
H      30.75473375      29.22761940      31.60036481 
H      29.28885866      32.81615771      29.65375796 
H      29.29463599      33.72107731      32.83388435 
H      27.91629778      30.37836329      38.34341864 
H      29.85894229      29.39147245      35.96312943 
H      27.37002264      25.65667886      37.45326189 
H      27.54584569      23.99902901      33.02302351 
H      23.86769437      21.92790840      34.66042974 
H      23.19089685      19.23744959      31.06525439 
H      19.37972502      19.26879198      32.45534954 
H      19.44061330      14.53478550      30.12580945 
H      19.53894352      23.57843979      40.62894394 
H      18.80719783      26.51902283      39.06357220 
H      21.69538463      29.95147955      42.13712785 
H      19.09965722      32.37103802      42.08748306 
