364
Properties=species:S:1:pos:R:3 pbc="F F F"
N      14.75200000      12.69000000      26.77600000 
C      16.16800000      12.74200000      26.51700000 
C      16.57600000      11.60100000      25.62600000 
O      17.55700000      11.69800000      24.86600000 
C      16.93300000      12.69600000      27.84400000 
C      17.16300000      11.27900000      28.35300000 
C      17.36700000      11.14000000      29.84700000 
N      18.17700000      12.21400000      30.41400000 
C      18.60000000      12.20900000      31.66500000 
N      18.54700000      11.10100000      32.38500000 
N      19.07400000      13.31300000      32.22300000 
H      14.45400000      12.62700000      27.72700000 
H      16.40900000      13.64900000      25.99500000 
H      17.88200000      13.18600000      27.69000000 
H      16.36800000      13.27700000      28.55500000 
H      16.30200000      10.67500000      28.13000000 
H      18.00400000      10.85600000      27.82300000 
H      16.40800000      11.14600000      30.33200000 
H      17.85300000      10.19500000      30.03000000 
H      18.25400000      13.05200000      29.89400000 
H      18.26100000      10.23700000      31.99300000 
H      18.83200000      11.10400000      33.33500000 
H      19.03600000      14.18300000      31.75600000 
H      19.47300000      13.29500000      33.13100000 
N      15.87000000      10.48300000      25.71200000 
C      16.24800000       9.30700000      24.98000000 
C      15.98800000       9.50000000      23.51400000 
O      16.69500000       8.94800000      22.65700000 
C      15.46800000       8.12600000      25.53400000 
C      15.78600000       6.85600000      24.78700000 
O      16.97300000       6.42800000      24.86500000 
O      14.85000000       6.32100000      24.13300000 
H      15.03700000      10.44400000      26.25900000 
H      17.30300000       9.13000000      25.08200000 
H      15.75700000       8.01100000      26.56900000 
H      14.41700000       8.33700000      25.48700000 
N      14.98400000      10.29800000      23.16300000 
C      14.78500000      10.59000000      21.76600000 
C      15.97000000      11.36400000      21.26100000 
O      16.43300000      11.17700000      20.12500000 
C      13.50100000      11.37100000      21.57100000 
H      14.49100000      10.83200000      23.84300000 
H      14.76300000       9.67100000      21.20900000 
H      13.35700000      11.58500000      20.52300000 
H      12.66900000      10.78400000      21.92600000 
H      13.53800000      12.29700000      22.12200000 
N      16.50200000      12.25800000      22.09000000 
C      17.63800000      13.03400000      21.67100000 
C      18.79300000      12.12300000      21.38600000 
O      19.56700000      12.35300000      20.44100000 
C      18.06900000      14.08800000      22.69600000 
C      16.88900000      14.78700000      23.35500000 
C      18.98800000      15.08400000      22.00200000 
C      15.97700000      15.51900000      22.39000000 
H      16.14900000      12.35000000      23.01100000 
H      17.40200000      13.51500000      20.73800000 
H      18.61400000      13.58200000      23.47700000 
H      16.30900000      14.07300000      23.91400000 
H      17.29400000      15.48500000      24.07600000 
H      19.27100000      15.87000000      22.68800000 
H      19.88200000      14.60400000      21.63700000 
H      18.48400000      15.53500000      21.15800000 
H      15.11500000      15.91600000      22.91200000 
H      16.48600000      16.34000000      21.90800000 
H      15.61900000      14.84900000      21.62600000 
N      18.97200000      11.06000000      22.16100000 
C      20.05000000      10.13600000      21.88400000 
C      19.98900000       9.69600000      20.44900000 
O      21.01200000       9.63100000      19.74200000 
C      19.92000000       8.94000000      22.81500000 
C      20.94800000       7.84600000      22.58200000 
C      22.35900000       8.32600000      22.86700000 
C      20.60900000       6.65400000      23.46100000 
H      18.38400000      10.91000000      22.94900000 
H      20.99700000      10.62600000      22.00000000 
H      20.01400000       9.30000000      23.83100000 
H      18.92600000       8.54000000      22.70400000 
H      20.89600000       7.52800000      21.54700000 
H      23.05700000       7.51400000      22.74800000 
H      22.65700000       9.12400000      22.20200000 
H      22.42900000       8.68800000      23.88600000 
H      21.33000000       5.85900000      23.32400000 
H      20.62400000       6.94800000      24.50500000 
H      19.62400000       6.27000000      23.23500000 
N      18.79900000       9.35800000      19.97500000 
C      18.64200000       8.84600000      18.63800000 
C      19.05000000       9.85500000      17.61200000 
O      19.42900000       9.48500000      16.48100000 
C      17.20300000       8.44500000      18.41700000 
C      16.82200000       7.24900000      19.25800000 
O      17.71300000       6.38300000      19.48100000 
O      15.62300000       7.19200000      19.65300000 
H      17.98900000       9.49100000      20.53800000 
H      19.27300000       7.98900000      18.50400000 
H      16.55200000       9.27100000      18.64800000 
H      17.07000000       8.17900000      17.37700000 
N      18.99600000      11.13500000      17.93200000 
C      19.34300000      12.16300000      16.98900000 
C      20.79000000      12.11100000      16.59800000 
O      21.16500000      12.70400000      15.57600000 
C      19.04700000      13.51500000      17.60700000 
H      18.77500000      11.41200000      18.86100000 
H      18.77800000      12.02500000      16.08500000 
H      19.24100000      14.30500000      16.90000000 
H      18.01200000      13.54200000      17.89700000 
H      19.65000000      13.65900000      18.48500000 
N      21.61600000      11.45800000      17.40700000 
C      23.01700000      11.34300000      17.11300000 
C      23.31400000      10.01500000      16.46300000 
O      24.48600000       9.68600000      16.21700000 
C      23.92700000      11.51400000      18.32100000 
C      23.96100000      12.89100000      18.97600000 
C      24.31700000      13.99900000      17.99900000 
C      22.68200000      13.23500000      19.71700000 
H      21.22500000      10.97600000      18.19000000 
H      23.24900000      12.09100000      16.37800000 
H      23.65800000      10.77300000      19.06200000 
H      24.92100000      11.27900000      17.97500000 
H      24.75900000      12.83600000      19.71000000 
H      24.42500000      14.94000000      18.52400000 
H      25.24700000      13.79000000      17.48600000 
H      23.53900000      14.12200000      17.25800000 
H      22.84400000      14.09700000      20.35500000 
H      21.88900000      13.46900000      19.02700000 
H      22.34900000      12.41200000      20.33000000 
N      22.28400000       9.22600000      16.16100000 
C      22.47200000       7.90000000      15.64400000 
C      22.28000000       7.82300000      14.15900000 
O      22.77400000       6.89100000      13.51000000 
C      21.52700000       6.92000000      16.33100000 
C      21.75800000       6.92100000      17.82800000 
C      23.18300000       6.57500000      18.18500000 
O      23.71900000       5.60400000      17.57300000 
O      23.75300000       7.27300000      19.07300000 
H      21.35600000       9.49100000      16.40700000 
H      23.48400000       7.60100000      15.83400000 
H      20.50800000       7.20400000      16.11600000 
H      21.71300000       5.94000000      15.93000000 
H      21.51900000       7.87800000      18.25300000 
H      21.10600000       6.18500000      18.28400000 
N      21.53200000       8.76700000      13.57700000 
C      21.27300000       8.74600000      12.16300000 
C      22.35800000       9.42800000      11.37100000 
O      22.38300000       9.32400000      10.13500000 
C      19.95100000       9.42300000      11.86400000 
C      18.83000000       8.68300000      12.52000000 
O      18.66900000       7.46700000      12.32600000 
N      18.04000000       9.40100000      13.30900000 
H      21.15600000       9.49800000      14.13500000 
H      21.23700000       7.72400000      11.83700000 
H      19.97900000      10.44400000      12.20000000 
H      19.78900000       9.41600000      10.79900000 
H      17.28000000       8.96600000      13.78100000 
H      18.21900000      10.36100000      13.48500000 
N      23.21900000      10.16200000      12.06100000 
C      24.31400000      10.87000000      11.47000000 
C      25.53400000       9.98500000      11.41000000 
O      25.57200000       8.88200000      11.97000000 
C      24.52800000      12.18000000      12.22100000 
C      24.75900000      12.06400000      13.72300000 
C      26.18200000      11.66200000      14.06900000 
C      24.42600000      13.40200000      14.36100000 
H      23.15100000      10.14900000      13.04700000 
H      24.04700000      11.10300000      10.45300000 
H      25.34600000      12.72800000      11.78100000 
H      23.62600000      12.75300000      12.05700000 
H      24.09100000      11.32600000      14.14100000 
H      26.29000000      11.61100000      15.14400000 
H      26.44300000      10.69700000      13.66500000 
H      26.87200000      12.39600000      13.68400000 
H      24.67000000      13.38400000      15.41000000 
H      25.01300000      14.17700000      13.89900000 
H      23.37300000      13.62200000      14.26000000 
N      26.56100000      10.44200000      10.68700000 
C      27.73600000       9.65900000      10.49400000 
C      28.81900000      10.02800000      11.47000000 
O      28.82000000      11.08100000      12.12000000 
C      28.28000000       9.82700000       9.08800000 
O      28.81000000      11.16600000       9.05200000 
C      27.23300000       9.62500000       8.02500000 
H      26.53600000      11.35100000      10.29500000 
H      27.47900000       8.62500000      10.63800000 
H      29.09200000       9.13300000       8.94800000 
H      28.99600000      11.47100000       8.17000000 
H      27.68600000       9.69200000       7.04500000 
H      26.78200000       8.64900000       8.12800000 
H      26.46200000      10.37500000       8.10700000 
N      30.11500000      13.33500000      10.54600000 
C      29.27000000      14.44200000      10.92000000 
C      29.55900000      14.85500000      12.33300000 
O      29.61700000      16.05800000      12.65400000 
C      27.81500000      14.02200000      10.76100000 
C      26.84000000      15.17200000      10.87600000 
C      26.62800000      15.70800000      12.27200000 
O      27.00100000      15.00000000      13.24600000 
O      26.04300000      16.82700000      12.36900000 
H      29.68200000      12.48700000      10.24900000 
H      29.48200000      15.29700000      10.30000000 
H      27.72200000      13.57100000       9.78500000 
H      27.59300000      13.26500000      11.49300000 
H      27.13500000      15.99200000      10.23700000 
H      25.87000000      14.84100000      10.52800000 
N      29.77500000      13.88300000      13.20600000 
C      29.82700000      14.14700000      14.62400000 
C      30.84300000      15.21800000      14.91200000 
O      30.62200000      16.12700000      15.73300000 
C      30.14800000      12.81500000      15.29300000 
C      30.21400000      12.78600000      16.81400000 
C      31.48900000      13.41100000      17.36500000 
C      28.97700000      13.39800000      17.45300000 
H      29.67300000      12.93800000      12.90500000 
H      28.87700000      14.53100000      14.94800000 
H      29.36800000      12.13500000      14.97500000 
H      31.07600000      12.44800000      14.88000000 
H      30.23600000      11.73500000      17.07700000 
H      31.62100000      13.11900000      18.39900000 
H      32.35600000      13.07100000      16.81500000 
H      31.45500000      14.48700000      17.30900000 
H      28.98900000      13.24000000      18.52400000 
H      28.94000000      14.46300000      17.27100000 
H      28.07600000      12.95100000      17.05200000 
N      28.89000000      10.97700000      21.35800000 
C      27.48600000      11.29800000      21.25400000 
C      26.80500000      11.00700000      22.56300000 
O      25.93600000      11.76400000      23.02200000 
C      26.86700000      10.47000000      20.14500000 
H      29.30800000      10.40500000      20.66300000 
H      27.35400000      12.34900000      21.06600000 
H      25.80900000      10.66300000      20.08300000 
H      27.32200000      10.72800000      19.20100000 
H      27.02100000       9.41700000      20.33600000 
N      27.13500000       9.88300000      23.19300000 
C      26.43500000       9.48900000      24.39000000 
C      26.71100000      10.47500000      25.49000000 
O      25.82400000      10.86300000      26.27500000 
C      26.90000000       8.12200000      24.87400000 
C      26.97600000       7.05500000      23.79600000 
C      27.26000000       5.72100000      24.46600000 
C      25.70100000       6.98200000      22.98100000 
H      27.81200000       9.27600000      22.79800000 
H      25.37700000       9.49600000      24.20500000 
H      27.87300000       8.22400000      25.33400000 
H      26.20700000       7.80500000      25.64100000 
H      27.80400000       7.28100000      23.13600000 
H      27.39300000       4.94000000      23.72900000 
H      28.15300000       5.77700000      25.07600000 
H      26.42900000       5.45100000      25.10500000 
H      25.77700000       6.21200000      22.22400000 
H      24.86900000       6.74200000      23.62900000 
H      25.48900000       7.91900000      22.48700000 
N      24.89600000      13.55800000      25.10500000 
C      23.54100000      13.55500000      25.60400000 
C      23.50700000      13.76700000      27.09100000 
O      22.69800000      14.57300000      27.58300000 
C      22.74800000      12.30900000      25.23100000 
O      23.17500000      11.14500000      25.93400000 
C      22.74200000      12.06700000      23.74300000 
H      25.25900000      12.80200000      24.56400000 
H      23.01700000      14.39900000      25.18900000 
H      21.74300000      12.48600000      25.57400000 
H      24.12000000      10.97100000      25.89800000 
H      22.11100000      11.22100000      23.54300000 
H      22.35700000      12.92800000      23.21800000 
H      23.73400000      11.84700000      23.38400000 
N      18.42800000      21.80500000      20.29800000 
C      18.88200000      20.73400000      19.45100000 
C      18.50600000      21.02200000      18.02600000 
O      19.31100000      20.90400000      17.08800000 
C      18.22300000      19.43000000      19.89100000 
O      18.65600000      19.10500000      21.21100000 
C      18.60500000      18.29200000      18.98500000 
H      17.90000000      21.58500000      21.11600000 
H      19.95100000      20.62800000      19.49100000 
H      17.15400000      19.57500000      19.89100000 
H      18.18700000      19.60300000      21.88200000 
H      18.20700000      17.37200000      19.37900000 
H      18.20800000      18.43800000      17.99400000 
H      19.68000000      18.21200000      18.91900000 
N      19.63700000      17.42600000       8.03000000 
C      19.07300000      16.12300000       7.82600000 
C      17.60100000      16.11200000       8.09100000 
O      17.09000000      16.75000000       9.02700000 
C      19.72800000      15.11300000       8.75700000 
C      21.16700000      14.89200000       8.33400000 
C      21.93100000      14.19800000       9.41000000 
O      21.61200000      13.06400000       9.81300000 
N      22.95200000      14.88200000       9.92200000 
H      19.62400000      17.81100000       8.94400000 
H      19.25500000      15.84900000       6.80600000 
H      19.67700000      15.50100000       9.76400000 
H      19.19000000      14.18300000       8.73300000 
H      21.18600000      14.27600000       7.44600000 
H      21.62800000      15.83400000       8.11100000 
H      23.18600000      15.78100000       9.56800000 
H      23.49800000      14.49100000      10.65200000 
N      16.09400000      13.88800000       9.50900000 
C      15.90900000      13.38400000      10.84200000 
C      15.80900000      14.48900000      11.85200000 
O      15.30700000      14.23800000      12.96400000 
C      17.02800000      12.43100000      11.24100000 
C      18.39700000      13.09500000      11.22700000 
S      19.36500000      12.87700000      12.79300000 
C      18.32100000      13.86500000      13.95200000 
H      16.87600000      13.58800000       8.98000000 
H      14.97500000      12.85500000      10.89500000 
H      16.78500000      12.05600000      12.22100000 
H      17.01200000      11.59000000      10.56400000 
H      19.03200000      12.69400000      10.46100000 
H      18.31800000      14.15400000      11.06700000 
H      18.88800000      13.95600000      14.85600000 
H      18.14400000      14.83300000      13.52400000 
H      17.39100000      13.36100000      14.13300000 
N      12.40100000      14.46400000      12.33600000 
C      12.04200000      13.24000000      13.01000000 
C      12.13200000      13.44900000      14.49200000 
O      11.23600000      13.05300000      15.25400000 
C      12.97000000      12.10900000      12.59400000 
C      12.70500000      10.83200000      13.37300000 
C      13.48900000      10.75700000      14.65200000 
O      14.69300000      11.06400000      14.69000000 
N      12.84200000      10.30500000      15.72200000 
H      13.14800000      14.47000000      11.68600000 
H      11.01900000      12.98100000      12.80100000 
H      12.82600000      11.93200000      11.53900000 
H      13.98600000      12.41300000      12.75400000 
H      11.65300000      10.70600000      13.56900000 
H      13.03000000       9.98700000      12.78100000 
H      11.86600000      10.13500000      15.70200000 
H      13.31700000      10.21600000      16.58900000 
N      13.22200000      14.04500000      14.96000000 
C      13.34900000      14.21000000      16.38400000 
C      12.23400000      15.08700000      16.87100000 
O      11.58000000      14.82100000      17.90100000 
C      14.68800000      14.82800000      16.74700000 
C      14.81300000      15.05800000      18.24500000 
C      14.67400000      13.75000000      19.00300000 
C      16.12600000      15.74700000      18.56000000 
H      13.97300000      14.28900000      14.34700000 
H      13.22500000      13.25900000      16.86500000 
H      15.47000000      14.15700000      16.41900000 
H      14.80000000      15.76000000      16.21300000 
H      14.01900000      15.71800000      18.55700000 
H      14.90400000      13.88100000      20.04800000 
H      13.66700000      13.36400000      18.93800000 
H      15.35200000      13.00700000      18.60900000 
H      16.22800000      15.90200000      19.62400000 
H      16.95900000      15.14900000      18.22900000 
H      16.18400000      16.70800000      18.06800000 
H      14.36052481      13.43456418      26.45604476 
H      29.58923455       9.40815351      11.62009683 
H      30.64150427      13.57808296       9.85773847 
H      31.72379252      15.21193999      14.43853636 
H      29.37352855      11.73595189      21.34413762 
H      27.63266159      10.84346148      25.61155674 
H      25.01594368      14.26841125      24.56562132 
H      24.13409150      13.26044589      27.68274250 
H      19.13710783      22.26636910      20.60509060 
H      17.57780664      21.32094291      17.80443688 
H      20.50656146      17.41664241       7.79810499 
H      16.99141773      15.57827498       7.50487112 
H      15.38432736      13.66511292       9.00235802 
H      16.14184717      15.40451864      11.62608326 
H      11.69731368      14.76307408      11.86125769 
H      11.99303842      15.91599517      16.36631740 
