448
Properties=species:S:1:pos:R:3 pbc="F F F"
N      37.80500000      46.35800000      19.77900000 
C      37.99200000      47.62400000      19.59400000 
C      37.14200000      47.93500000      18.25200000 
O      36.43100000      48.80400000      17.90500000 
C      39.26800000      48.51700000      19.12000000 
C      39.87200000      48.80900000      20.71700000 
C      39.62900000      49.53900000      21.71700000 
O      39.02400000      49.44200000      22.40300000 
N      39.85000000      50.84600000      21.04600000 
H      39.15400000      45.96100000      19.86900000 
H      37.31700000      48.19600000      20.12200000 
H      39.82300000      47.81400000      18.66100000 
H      39.14100000      49.36500000      18.89100000 
H      40.00200000      47.60800000      21.24800000 
H      41.14400000      48.84200000      20.36300000 
H      40.23500000      51.22700000      20.44900000 
H      39.43400000      51.71400000      21.87600000 
N      34.62000000      46.74000000      15.17700000 
C      33.11200000      46.43000000      14.65300000 
C      33.33600000      44.88700000      14.20200000 
O      32.19100000      44.21400000      14.71400000 
C      32.61500000      47.46500000      14.13100000 
C      30.68800000      46.71000000      13.73300000 
C      30.15000000      47.17700000      14.97600000 
O      29.80200000      48.26500000      15.54800000 
N      29.75600000      45.92100000      15.99400000 
H      34.74500000      47.65900000      14.48200000 
H      32.63900000      46.21000000      16.00300000 
H      32.36200000      48.04800000      14.31200000 
H      32.82300000      47.27700000      12.98500000 
H      30.42700000      47.63300000      13.19100000 
H      30.78300000      46.09700000      13.41500000 
H      30.06400000      45.03800000      15.52700000 
H      29.30700000      46.02800000      16.60400000 
N      33.46100000      42.63000000      17.16800000 
C      32.36800000      42.16100000      18.06700000 
C      31.17200000      41.35500000      17.42500000 
O      30.60300000      40.39500000      17.87900000 
C      31.68900000      43.56200000      18.42800000 
C      32.80600000      44.48100000      19.15700000 
C      32.17100000      45.46000000      20.14300000 
N      31.67900000      46.49100000      19.37100000 
C      31.89600000      47.56700000      19.02000000 
N      33.89200000      47.35400000      19.19800000 
N      32.03600000      48.56900000      18.26600000 
H      33.74200000      43.03000000      16.90500000 
H      32.51900000      41.54500000      18.75700000 
H      31.59500000      44.09600000      17.74100000 
H      30.99000000      43.30300000      18.87800000 
H      33.19100000      43.32700000      20.28400000 
H      33.54200000      44.49300000      18.96600000 
H      31.24100000      44.90100000      20.76600000 
H      32.83600000      45.69500000      20.96400000 
H      30.71700000      46.52500000      19.34900000 
H      34.20100000      46.79900000      19.52800000 
H      34.19800000      48.42000000      18.67700000 
H      30.59200000      48.38800000      18.31900000 
H      32.10300000      49.15900000      18.00200000 
N      30.97500000      41.75800000      15.64400000 
C      30.09900000      41.13300000      15.35000000 
C      30.31800000      39.63300000      15.05200000 
O      29.21900000      38.47800000      15.22200000 
C      29.35300000      41.76100000      13.67900000 
O      29.07600000      42.96900000      14.45200000 
C      28.68600000      41.09000000      13.04300000 
H      31.41900000      42.37700000      15.53400000 
H      28.96700000      40.99600000      15.81300000 
H      30.70800000      41.87200000      13.31800000 
H      29.18900000      43.73900000      13.51300000 
H      28.48300000      41.61300000      12.14400000 
H      29.10800000      40.03600000      12.59300000 
H      27.71100000      40.84500000      13.61100000 
N      28.29800000      42.29200000      23.66300000 
C      28.76700000      42.55900000      22.35700000 
C      27.87000000      43.70100000      21.62300000 
O      28.44700000      44.14600000      20.36700000 
C      28.65100000      41.40800000      21.32700000 
C      29.62200000      40.43900000      21.58500000 
C      30.85100000      40.67900000      21.42400000 
C      29.29300000      38.76100000      22.46600000 
C      32.28600000      39.63800000      21.87000000 
C      30.37100000      38.48000000      22.50000000 
C      31.34300000      38.05000000      22.31200000 
H      27.77500000      41.50400000      23.88600000 
H      29.57900000      43.12100000      22.24100000 
H      27.58200000      40.90300000      21.47300000 
H      28.77600000      41.59000000      20.55900000 
H      31.36500000      41.40000000      21.16400000 
H      28.17400000      38.88900000      22.45500000 
H      32.88000000      39.70000000      21.62500000 
H      29.82600000      37.01300000      22.95300000 
H      32.19700000      37.70200000      22.52700000 
N      26.60000000      44.27200000      21.90600000 
C      25.63100000      44.74100000      21.61700000 
C      25.57200000      46.41600000      21.54100000 
O      25.21300000      46.91800000      21.90900000 
C      24.42600000      44.35000000      21.69000000 
C      22.96200000      44.89600000      20.58000000 
O      23.52500000      45.24900000      19.82400000 
O      22.00000000      44.78400000      21.15600000 
H      26.27600000      43.59600000      22.94900000 
H      25.86800000      44.43100000      19.99400000 
H      24.15900000      43.34400000      21.67300000 
H      23.95000000      44.62400000      22.72800000 
N      26.87900000      46.93000000      20.98300000 
C      27.41900000      48.08000000      21.05900000 
C      28.09700000      48.21900000      19.60300000 
O      28.61800000      48.13100000      19.24200000 
C      28.50500000      48.34900000      22.27500000 
O      27.86000000      48.02600000      23.01800000 
C      29.16800000      49.78300000      21.91200000 
H      27.71800000      46.03600000      20.52500000 
H      26.55200000      48.73100000      21.36200000 
H      29.34500000      47.57400000      21.81000000 
H      28.74700000      47.94800000      24.14800000 
H      29.77800000      49.83900000      22.83700000 
H      29.61000000      49.94900000      21.15900000 
H      28.36700000      50.47900000      22.21600000 
N      26.66400000      49.95900000      19.01000000 
C      27.40500000      49.77500000      17.91600000 
C      27.69600000      51.70600000      17.66800000 
O      27.51900000      52.21200000      18.89100000 
C      25.94800000      50.25000000      17.15200000 
C      25.25100000      48.38600000      16.73300000 
C      26.20500000      47.62000000      16.02500000 
N      26.17200000      47.87800000      14.53900000 
C      26.47700000      46.78700000      13.48700000 
N      26.80300000      46.02200000      13.64200000 
N      26.46100000      47.45500000      12.62800000 
H      26.51600000      49.84100000      19.58300000 
H      28.13500000      49.37900000      17.22100000 
H      25.40700000      50.50900000      17.39500000 
H      26.21200000      50.35800000      15.87900000 
H      25.31100000      48.22600000      17.81900000 
H      24.58100000      48.69100000      16.42500000 
H      27.07400000      47.46600000      16.38300000 
H      25.55500000      46.66700000      16.10100000 
H      25.89400000      48.89800000      14.34800000 
H      26.95000000      45.44500000      14.85000000 
H      27.04500000      45.23100000      13.14100000 
H      26.11700000      48.47100000      12.03700000 
H      26.65700000      46.88900000      11.53400000 
N      28.50000000      51.87500000      16.77600000 
C      28.86600000      53.32400000      16.72000000 
C      28.21900000      54.00900000      15.27000000 
O      28.59600000      54.63000000      14.53600000 
C      30.28700000      53.39100000      16.24600000 
C      30.93000000      53.54800000      17.79200000 
O      31.55200000      52.33300000      17.87800000 
N      30.93200000      54.22200000      18.48300000 
H      28.79700000      51.26000000      16.04300000 
H      28.35200000      53.84500000      17.48000000 
H      30.70100000      52.91900000      15.84200000 
H      30.54000000      54.53900000      16.17200000 
H      31.33000000      54.09500000      19.44600000 
H      30.82200000      54.61800000      18.55200000 
N      26.70600000      53.42700000      15.46700000 
C      26.20000000      54.19400000      13.95500000 
C      25.88600000      55.34400000      13.75200000 
O      26.40800000      55.99000000      12.51000000 
C      24.49100000      53.14300000      13.92400000 
C      23.73000000      54.22700000      13.00000000 
C      24.23300000      53.87500000      11.83100000 
N      23.15700000      54.12100000      10.36600000 
C      22.89200000      54.30300000       9.55500000 
N      23.74300000      52.94800000       8.91100000 
N      22.32200000      54.67900000       8.64600000 
H      26.36100000      53.11500000      15.75700000 
H      26.54500000      53.59800000      13.12900000 
H      24.62500000      52.74600000      14.12300000 
H      24.09700000      53.91000000      15.17200000 
H      22.71700000      53.74800000      13.20200000 
H      23.73500000      54.98400000      12.90300000 
H      24.81400000      53.70900000      11.38000000 
H      23.80000000      52.34500000      11.51100000 
H      22.68400000      54.92700000      10.81700000 
H      24.46900000      52.27000000       9.43700000 
H      23.68500000      52.65000000       7.68400000 
H      21.82400000      55.37900000       8.88600000 
H      22.26400000      54.38000000       7.38500000 
N      28.26500000      58.14200000      14.57300000 
C      29.61800000      58.40700000      14.41100000 
C      30.16300000      58.12500000      13.17300000 
O      30.74500000      58.93500000      12.61000000 
C      30.56800000      58.23000000      15.77800000 
C      29.95300000      58.29400000      17.13500000 
C      31.69800000      58.59100000      15.41400000 
C      29.73600000      60.17900000      17.44800000 
H      28.10500000      57.05300000      15.57400000 
H      29.48200000      59.55700000      14.48800000 
H      30.70200000      57.07700000      15.63100000 
H      29.18200000      58.06500000      17.23100000 
H      30.75100000      58.16000000      17.69500000 
H      32.68300000      58.56800000      16.31900000 
H      32.51800000      58.26600000      14.48200000 
H      31.91300000      59.92500000      15.29700000 
H      29.43400000      60.10300000      18.23000000 
H      30.66500000      60.49600000      17.21600000 
H      28.95500000      60.37100000      16.68600000 
N      29.79900000      56.67100000      13.07400000 
C      30.65200000      56.43900000      11.49500000 
C      30.02300000      56.84800000      10.39500000 
O      30.72900000      56.94700000       9.04000000 
C      30.74800000      54.84100000      11.46600000 
C      31.52500000      54.02900000      12.45100000 
C      32.88900000      54.43800000      12.18400000 
O      33.37100000      54.85600000      10.96600000 
O      33.91700000      53.99300000      13.14800000 
H      29.59700000      56.33500000      13.16500000 
H      31.47800000      56.62700000      11.48700000 
H      29.46000000      54.39800000      11.73200000 
H      30.79300000      54.51900000      10.48400000 
H      31.39200000      54.55200000      13.53000000 
H      31.41400000      53.15400000      12.45600000 
N      31.27400000      64.38300000      21.83400000 
C      30.77000000      63.24200000      20.75500000 
C      31.99000000      62.19600000      20.65500000 
O      31.65500000      60.95800000      20.81100000 
C      30.48500000      63.68100000      19.53900000 
C      28.92400000      64.34700000      19.32300000 
C      28.87100000      65.08600000      17.86100000 
O      29.50100000      65.36800000      17.45000000 
O      27.51900000      65.22400000      17.72400000 
H      31.26700000      65.40700000      21.07300000 
H      30.12400000      62.84500000      21.30500000 
H      31.10600000      64.22100000      18.97500000 
H      30.26900000      62.92300000      18.95100000 
H      28.26900000      63.91800000      19.64600000 
H      29.03900000      65.24600000      20.15500000 
N      33.28100000      62.92500000      20.55900000 
C      34.14600000      61.53200000      20.42000000 
C      34.68900000      61.19100000      21.53500000 
O      35.07800000      59.88900000      21.57800000 
C      35.58300000      62.74800000      20.07200000 
O      35.03400000      63.32600000      18.61100000 
C      36.92900000      62.05400000      19.77200000 
H      33.38400000      63.76800000      20.46400000 
H      34.28800000      61.32200000      19.83800000 
H      35.93300000      63.32600000      20.70100000 
H      35.10800000      64.27000000      18.76800000 
H      37.68700000      62.34600000      19.45200000 
H      37.05700000      61.55500000      20.70300000 
H      36.62000000      61.06600000      19.03400000 
N      34.63400000      61.96800000      23.10300000 
C      34.92600000      61.10800000      23.95200000 
C      33.53400000      60.34800000      24.58100000 
O      34.25200000      58.97000000      25.17700000 
C      34.94100000      62.17000000      25.41700000 
C      36.22100000      62.97800000      25.27400000 
C      36.24100000      63.80800000      26.60300000 
C      37.55200000      61.83400000      25.35900000 
H      34.43100000      62.83900000      23.03800000 
H      35.64700000      60.54000000      24.20900000 
H      34.20700000      62.77300000      25.37500000 
H      35.00500000      61.64700000      26.32000000 
H      36.26400000      63.66200000      24.31900000 
H      37.26900000      64.72000000      26.37300000 
H      35.38900000      64.70900000      26.50900000 
H      36.35000000      63.54300000      27.35200000 
H      38.52000000      62.89700000      25.24900000 
H      37.59400000      61.62300000      25.92100000 
H      37.63200000      61.64200000      24.34700000 
N      32.61600000      60.21800000      24.18800000 
C      31.46800000      59.49500000      24.43500000 
C      31.79300000      58.32700000      23.52600000 
O      31.43400000      57.14000000      24.05100000 
C      29.82200000      60.04300000      23.99500000 
C      28.89500000      59.21600000      24.68800000 
O      28.91500000      58.76300000      25.58600000 
O      28.01900000      59.02400000      23.85300000 
H      32.13300000      61.51000000      23.80000000 
H      31.40700000      59.14100000      25.47700000 
H      30.01600000      61.00600000      24.65200000 
H      29.95100000      60.26900000      23.17200000 
N      31.94600000      58.49200000      22.25300000 
C      32.24500000      57.11900000      21.22700000 
C      33.71500000      56.52800000      22.07400000 
O      33.06700000      55.00100000      21.97200000 
C      32.92500000      57.74700000      19.93700000 
H      32.09300000      59.28100000      21.84700000 
H      31.31900000      56.64700000      21.37000000 
H      32.69200000      56.99000000      19.45200000 
H      31.75600000      58.38900000      19.62200000 
H      33.32900000      58.22700000      19.91700000 
N      34.44100000      57.22700000      22.30600000 
C      35.78000000      56.16600000      22.84400000 
C      35.39800000      55.48300000      24.02800000 
O      35.62400000      54.32700000      24.27000000 
C      36.86400000      57.23900000      22.80800000 
O      37.19000000      57.59100000      21.72800000 
C      38.10600000      56.56800000      23.24000000 
H      34.66700000      58.02100000      22.19500000 
H      35.84300000      55.44900000      22.13600000 
H      36.70600000      57.90600000      23.50700000 
H      37.47500000      58.24800000      21.48500000 
H      38.90700000      57.03800000      23.42100000 
H      37.96100000      56.08100000      24.78300000 
H      38.29500000      55.53100000      22.85100000 
N      34.46300000      56.30800000      25.12600000 
C      34.02400000      55.46000000      26.45900000 
C      33.39100000      54.38800000      26.31600000 
O      33.58800000      53.52100000      26.72700000 
C      33.68200000      56.55200000      27.20100000 
C      33.58000000      55.84800000      28.83400000 
C      34.22500000      55.53900000      29.17600000 
N      35.59800000      56.06900000      29.54000000 
C      36.93500000      55.83600000      29.92400000 
N      36.90100000      54.47500000      29.75300000 
N      37.65600000      56.77000000      29.76800000 
H      34.30200000      57.17200000      24.93200000 
H      35.21100000      55.09900000      26.78400000 
H      34.34900000      57.41600000      27.39200000 
H      32.74800000      57.17400000      26.74200000 
H      32.82700000      57.06200000      29.31100000 
H      32.39500000      55.41100000      28.59200000 
H      34.06300000      54.96600000      30.45200000 
H      34.69100000      54.55100000      28.94800000 
H      35.35500000      57.23400000      29.62300000 
H      36.41400000      53.89000000      29.84700000 
H      38.16500000      54.22700000      29.85900000 
H      37.60900000      57.70200000      29.71700000 
H      38.73300000      56.37400000      30.05100000 
N      32.17500000      54.35100000      24.99500000 
C      31.43000000      53.32600000      24.77500000 
C      32.39500000      52.05800000      24.46800000 
O      31.84700000      50.96500000      24.84700000 
C      30.31000000      53.97500000      24.10100000 
C      29.48900000      54.50200000      24.78200000 
C      28.23700000      54.85800000      23.66200000 
N      27.47800000      54.22200000      23.31800000 
C      27.14000000      53.49900000      21.86600000 
N      28.44000000      54.11300000      20.94300000 
N      26.59600000      52.78000000      21.51300000 
H      32.19800000      55.26500000      24.70800000 
H      31.05100000      52.94300000      25.98700000 
H      30.72500000      54.26700000      23.07600000 
H      29.83500000      52.68900000      23.61700000 
H      28.80400000      54.01400000      25.38000000 
H      29.71500000      55.37500000      25.06000000 
H      27.45000000      55.95400000      24.29500000 
H      28.70900000      55.71300000      22.91100000 
H      26.64900000      53.67200000      23.68700000 
H      28.81000000      54.59900000      21.18000000 
H      28.15600000      53.59300000      20.08500000 
H      25.72600000      52.32700000      22.29100000 
H      26.44400000      52.35200000      20.55800000 
N      33.16700000      52.12300000      23.51600000 
C      33.94800000      51.36000000      22.82400000 
C      35.09700000      50.41200000      24.15100000 
O      35.07900000      49.61200000      24.01300000 
C      34.77800000      51.72500000      21.82600000 
C      35.83400000      50.59300000      21.12900000 
C      33.59600000      52.08200000      20.78300000 
H      33.47000000      53.45400000      23.06600000 
H      33.37200000      50.35100000      22.69400000 
H      35.29900000      52.68000000      21.88400000 
H      36.22700000      51.05200000      20.31700000 
H      36.64800000      50.50800000      21.92400000 
H      35.33200000      49.78500000      21.03200000 
H      34.37000000      52.46700000      19.61700000 
H      33.18100000      51.06100000      20.21300000 
H      33.03700000      52.74900000      20.80100000 
N      35.52200000      51.09500000      24.92400000 
C      36.22700000      51.28900000      25.82500000 
C      35.70800000      49.97300000      26.90700000 
O      36.09700000      49.13000000      27.30800000 
C      36.96700000      52.08300000      26.64000000 
C      38.43000000      53.02200000      26.05300000 
O      38.72200000      52.32400000      24.87800000 
O      38.62600000      53.67600000      26.19200000 
H      35.49000000      52.84000000      24.72900000 
H      37.32000000      50.23200000      25.43700000 
H      36.49300000      52.86600000      26.91600000 
H      37.64000000      51.74500000      27.55600000 
N      34.39200000      50.65200000      27.29800000 
C      33.78100000      49.95800000      28.43600000 
C      33.23600000      48.64000000      27.77800000 
O      33.16500000      47.46000000      28.52400000 
C      32.29200000      50.78100000      28.63100000 
C      32.89700000      51.90700000      29.76000000 
O      34.02600000      51.77700000      30.36300000 
O      31.81400000      52.63100000      30.07200000 
H      34.07800000      51.57900000      27.01600000 
H      34.11200000      49.65000000      28.93400000 
H      32.01600000      51.14600000      28.08100000 
H      31.74200000      50.01600000      29.28800000 
N      32.76100000      48.67700000      26.32200000 
C      32.15600000      47.23300000      25.78500000 
C      33.55600000      46.15000000      25.74700000 
O      33.23000000      45.21000000      26.12300000 
C      31.81100000      47.55700000      24.58300000 
H      32.67900000      49.30800000      25.83200000 
H      31.65300000      46.86500000      26.34500000 
H      31.52600000      46.50600000      23.90800000 
H      31.05900000      48.17200000      24.34300000 
H      32.68000000      48.04300000      23.66300000 
N      34.98000000      46.85600000      25.39800000 
C      35.73800000      45.63800000      25.50400000 
C      36.31600000      45.25200000      26.71500000 
O      36.34100000      43.95500000      26.71100000 
C      37.11900000      46.54600000      24.77000000 
O      36.71900000      46.96900000      23.38600000 
C      38.17800000      45.99900000      24.67600000 
H      34.83800000      47.76900000      25.25600000 
H      35.60100000      45.13900000      24.69400000 
H      37.32500000      47.67800000      25.41900000 
H      36.40800000      47.93100000      23.32200000 
H      39.15100000      46.46300000      24.21900000 
H      38.85100000      45.74900000      25.79000000 
H      38.25600000      45.06400000      24.25400000 
N      36.14800000      46.22100000      27.98200000 
C      36.33600000      45.37400000      29.04900000 
C      35.53300000      44.55500000      29.79700000 
O      35.67700000      43.59400000      30.06300000 
C      36.30900000      46.80000000      30.23100000 
C      37.10100000      46.27200000      31.48000000 
C      38.07800000      47.44000000      29.81400000 
H      36.06700000      47.12400000      27.75700000 
H      37.44600000      44.79800000      29.12200000 
H      36.11600000      47.25600000      30.10200000 
H      36.96100000      46.89400000      32.14300000 
H      35.73700000      45.70900000      32.06700000 
H      37.52900000      45.34900000      31.73400000 
H      38.27500000      48.19000000      30.39800000 
H      38.90900000      46.69900000      29.80500000 
H      38.08600000      47.78500000      28.76100000 
N      33.94000000      44.71300000      29.33100000 
C      33.01800000      44.05400000      29.56500000 
C      32.89200000      42.64200000      29.20300000 
O      32.88600000      41.76800000      29.39700000 
C      31.60000000      44.73600000      29.19600000 
H      33.79600000      45.96900000      28.78900000 
H      33.08900000      43.73500000      30.75300000 
H      30.87500000      44.06700000      29.72300000 
H      31.55600000      45.58300000      30.01000000 
H      31.51000000      44.93100000      28.50000000 
H      37.32542345      46.23174490      20.53004327 
H      37.16626593      47.29386134      17.48495869 
H      34.60342138      46.89984640      16.06253615 
H      34.15169749      44.63110205      13.68319961 
H      34.25707301      42.38968586      17.51226279 
H      31.20654880      39.31308577      14.72315973 
H      28.99738286      42.22437521      24.22539711 
H      25.29890907      55.82446975      14.40351597 
H      27.84586430      58.88443534      14.86129676 
H      29.05698027      57.10303603      10.43698232 
H      30.69127655      64.42740605      22.51844246 
H      32.71675915      42.38306291      28.25313568 
