 558 
 
N                42.5432582769       46.0474434782       70.3951469404
C                42.7359053346       44.9700642317       71.3490671017
C                41.6413164077       45.0604642391       72.4217553267
O                41.5581040775       46.0567574262       73.1301519726
C                44.1099390957       45.0861585473       72.0291933669
C                45.2756709378       45.2540492142       71.0450698230
C                46.5829155184       45.4712656603       71.8065737144
C                45.3980435407       44.0372496498       70.1306249970
H                42.5493053042       46.9953613777       70.7560216878
H                42.6473882849       44.0308801846       70.8001654538
H                44.0697003791       45.9422079909       72.7078436286
H                44.2575490356       44.1862690178       72.6300474201
H                45.0799548060       46.1426453383       70.4315483930
H                47.3984721435       45.6320927263       71.1064717316
H                46.5122338710       46.3427259584       72.4513001063
H                46.8100475089       44.6027991167       72.4195019335
H                46.2977273322       44.1157264648       69.5266623275
H                45.4496623163       43.1272923713       70.7250103996
H                44.5430095753       43.9709694725       69.4621870002
N                39.8398608367       42.9078330483       75.6772359551
C                40.1858490295       41.9128813651       76.6798710480
C                39.0596486314       41.7036941706       77.6971035176
O                38.6836654519       42.5948800542       78.4524720833
C                41.4465525815       42.3871620558       77.4135853644
C                41.9277956803       41.5035379348       78.5171760786
N                42.8569806384       41.9901164264       79.3949065170
C                41.6326314104       40.2057942716       78.8455559716
C                43.1183169346       41.0181954734       80.2250825619
N                42.4009192298       39.9116582802       79.9405047378
H                39.8075390849       43.8713051960       75.9935252607
H                40.3679488142       40.9812306877       76.1396133677
H                42.2429517901       42.5216259391       76.6747599092
H                41.2421165004       43.3755508371       77.8324766605
H                40.9748188468       39.4912196425       78.3982319904
H                43.8136882152       41.0739278300       81.0375258023
H                42.4267905963       39.0404660049       80.4464668126
N                47.8872112083       39.8352530686       81.7095192544
C                48.7257289976       39.5895480681       80.5567140170
C                49.7672985835       40.6998342000       80.4278485683
O                49.6106787572       41.7821823218       80.9857310702
C                47.8850832938       39.5580961256       79.2681458596
H                47.4917182773       40.7639612080       81.8200908374
H                49.2150388338       38.6239865339       80.7155750377
H                48.3975430265       38.9790696334       78.5028072111
H                46.9233685169       39.0934852229       79.4832703395
H                47.7022864155       40.5700135861       78.9072390519
N                50.8072010169       40.4132030718       79.6406542122
C                51.6737804956       41.4479081792       79.1230999675
C                51.5431771754       41.4743290156       77.6007603164
O                51.5117008023       40.4455871516       76.9363598476
C                53.1479111437       41.1948086573       79.4709657430
C                53.4723314186       41.7040695408       80.8721367488
C                54.8514574358       41.3079650751       81.3416077784
O                55.5612475455       40.5172967811       80.7223091677
N                55.2448750078       41.8664626045       82.4818963234
H                50.8368235586       39.5161495905       79.1615731795
H                51.3463920762       42.3981776410       79.5581139334
H                53.3311692612       40.1220084224       79.4189087891
H                53.7713681785       41.7048665036       78.7319522335
H                53.3816834095       42.7918105213       80.9026492289
H                52.7464303813       41.3050785576       81.5852172592
H                54.6756983685       42.5542872903       82.9456942929
H                56.1745132575       41.7079795444       82.8411971938
N                51.4962433181       42.6993903918       77.0753549158
C                51.6095656553       42.9524431292       75.6574468103
C                52.9237978243       43.7160367603       75.4186311226
O                53.3130263429       44.5681211260       76.2064199193
C                50.4929434651       43.8552009756       75.1154089206
C                49.0702483042       43.4430955293       75.4026948199
C                48.6947601489       42.1800385180       75.8346196766
C                48.0701096132       44.3915456821       75.1972903142
C                47.3593899046       41.8703395807       76.0407570967
C                46.7396482316       44.0975145508       75.4089548310
C                46.3732802038       42.8219663618       75.8271592948
O                45.0503151703       42.5455615019       76.0087971630
H                51.5719965529       43.5104561564       77.6735642377
H                51.6382612969       41.9865964212       75.1487293746
H                50.6483594258       44.8586209199       75.5226084212
H                50.6265105122       43.9234714036       74.0308231111
H                49.4295651040       41.4124929706       76.0150750388
H                48.3470041784       45.3782284035       74.8590679850
H                47.0742030869       40.8802445613       76.3714530195
H                45.9682956663       44.8358533176       75.2623691592
H                44.9528940310       41.6310812927       76.3043606061
N                53.5379411426       43.3753073507       74.2897975877
C                54.7055189423       44.0212369346       73.7326226787
C                54.3536603098       44.3474306083       72.2763453967
O                53.8722036025       43.4885631062       71.5425532519
C                55.9109357349       43.0694920441       73.7878063678
C                56.2728043107       42.7569438182       75.2102098118
C                55.7038056621       41.6860852214       75.8862253921
C                57.1686240489       43.5764815020       75.8868249926
C                56.0486790463       41.4231147616       77.2026779776
C                57.5281513924       43.3180367176       77.1918056395
C                56.9603084274       42.2390158322       77.8663727277
O                57.3386896181       42.0125457659       79.1471871708
H                53.2107279654       42.5660485621       73.7675660309
H                54.9205794617       44.9325689612       74.2956954730
H                55.6335037544       42.1647671968       73.2471283505
H                56.7425490096       43.5520218605       73.2754162665
H                54.9753906056       41.0684928382       75.3822058714
H                57.5730959209       44.4397724524       75.3842991880
H                55.5954544289       40.5985913884       77.7316270421
H                58.2182351138       43.9632513723       77.7123104280
H                56.7433625628       41.3676752116       79.5730276248
N                54.5604651592       45.6148235617       71.9158244834
C                54.1456995443       46.1817054945       70.6443550892
C                55.3060379464       47.0623588460       70.1725918498
O                55.5166377589       48.1563603129       70.6768744453
C                52.8605248563       47.0219587956       70.8262726202
C                51.6921197870       46.1806373238       71.3747799524
C                52.4702474980       47.6802605769       69.5065704418
C                51.0736182562       46.7906255139       72.6277715411
H                55.0658710770       46.2300489770       72.5395504360
H                53.9719933609       45.3597754282       69.9443163609
H                53.1007510436       47.8071638969       71.5491657605
H                50.9209299029       46.0989363090       70.6070250984
H                52.0365203476       45.1711970883       71.5997899553
H                51.6251679551       48.3447057750       69.6631016361
H                53.2934317187       48.2566255736       69.0952819686
H                52.1874837841       46.9282156296       68.7748458100
H                50.2275775543       46.1930856137       72.9589919598
H                51.8001663748       46.8303324423       73.4375440888
H                50.7223307312       47.8013903964       72.4299535545
N                56.0579386603       46.5469703247       69.1924184433
C                57.2504446631       47.2126562381       68.7118558172
C                57.2910169214       47.1188926500       67.1897775604
O                57.0953525330       46.0395905629       66.6323633739
C                58.5223588723       46.5560738002       69.2947138470
O                58.4320581953       46.6616078383       70.6969674822
C                59.7725773669       47.2470444468       68.7487643643
H                55.8877043177       45.6068626063       68.8521960907
H                57.1974454814       48.2533188386       69.0457756915
H                58.5239960719       45.4916455361       69.0010447639
H                59.1941925234       46.2216624849       71.0931781477
H                60.6650476417       46.8572199612       69.2321260441
H                59.8589837229       47.0809590636       67.6780954152
H                59.7155160858       48.3180063245       68.9269571334
N                55.9698121751       50.8430510974       71.8124859220
C                54.8183182460       51.4982830997       72.3950414933
C                55.0751921410       51.7644875443       73.8777862617
O                55.8298697377       51.0685359815       74.5494867450
C                53.5695196303       50.6221984502       72.2176414033
C                52.2861135412       51.3887915513       72.2495697655
C                51.9500416952       52.4670875551       71.4780299033
C                51.1347746146       51.0875233286       73.0412972696
N                50.6631404748       52.8417823203       71.7224028887
C                50.1350788600       52.0243362852       72.6743873569
C                50.8417063425       50.1255031749       74.0101328715
C                48.8608824428       51.9954151286       73.2275257991
C                49.5784668935       50.1090271720       74.5611326104
C                48.5996909724       51.0306886330       74.1756499221
H                55.9030726305       49.8526331021       71.6143641446
H                54.6877829557       52.4672223238       71.9015589283
H                53.6655414452       50.1179346577       71.2517132181
H                53.5600716775       49.8499254117       72.9915809594
H                52.5444262886       52.9911672619       70.7547783075
H                50.2079885794       53.6556668099       71.3470174075
H                51.5833914366       49.4014799557       74.3216318674
H                48.0965575953       52.6932700001       72.9181797855
H                49.3372780987       49.3644564312       75.3061851206
H                47.6148189764       50.9812480192       74.6143974468
N                54.4212417391       52.8173573985       74.3765373043
C                54.5905594635       53.2045485680       75.7609601835
C                54.3835910073       52.0286680463       76.7113543587
O                55.0819770640       51.8777846870       77.7054401354
C                53.6558973229       54.3662671857       76.1218915465
C                52.2138286766       54.2135235195       75.5471784607
O                51.2822264484       54.1972455364       76.3756186333
O                52.1070602780       54.1543800783       74.3105959655
H                53.6435698979       53.2722271599       73.8867439539
H                55.6352742541       53.5123352193       75.9196523684
H                53.6014536236       54.4691527585       77.2060791249
H                54.0569715793       55.2875942377       75.6953926635
N                53.3558535116       51.2191566405       76.4218358493
C                53.0193473016       50.0799464370       77.2549184537
C                53.5979865794       48.7944173306       76.6322449522
O                52.9074866454       47.9251653822       76.1271609329
C                51.5098713363       50.0029813284       77.4993005601
C                51.1246723942       50.2744857967       78.9532638573
C                51.4628043201       51.7048373940       79.3941720111
N                50.7253356198       52.7131215883       78.6635001986
C                49.4696028310       53.0848163742       78.8754486363
N                48.7053799735       52.5227616580       79.8133716139
N                48.9859486089       54.0802622935       78.1372438488
H                52.8424386494       51.3487825667       75.5618938081
H                53.5631018768       50.2342120501       78.1940319294
H                51.0133051659       50.7269433288       76.8516592695
H                51.1723586618       49.0077415186       77.2065248365
H                50.0547304402       50.0962734262       79.0608992801
H                51.6527395338       49.5814970991       79.6073326910
H                51.2728286867       51.8176971900       80.4641937323
H                52.5234482593       51.8997954675       79.2276537072
H                51.1712611107       53.1617538147       77.8600275330
H                49.0466378422       51.7682103190       80.3845807287
H                47.7802974863       52.8817794418       79.9833678841
H                49.5631374344       54.4418522307       77.3878918472
H                48.0235248906       54.3651379278       78.2016578092
N                54.9317550481       48.7170803365       76.7451117128
C                55.7142454789       47.6339226713       76.1885661893
C                56.1555075539       46.6709833651       77.3125374266
O                57.3210685845       46.5819211704       77.6580704177
C                56.9440081941       48.1835843289       75.4719788234
C                57.5797256168       47.0844813168       74.6426999586
O                56.9254846002       46.3776061649       73.8877697549
N                58.9056391172       46.9646623012       74.7891656507
H                55.4434815657       49.5135476307       77.0981839530
H                55.0647110753       47.0818605265       75.4993623189
H                56.6427527382       49.0074447518       74.8209608112
H                57.6402126412       48.5596907707       76.2215335303
H                59.3895186251       46.2119441612       74.3270538992
H                59.4000674613       47.4741491516       75.5016063036
N                55.1405159898       46.0015929151       77.8743916055
C                55.3524547302       45.0432687896       78.9342522493
C                54.9590818716       45.5603832033       80.3225834939
O                55.7418936814       45.5554592385       81.2560961639
H                54.2373732151       46.0138745853       77.4171533874
H                54.7652871572       44.1449256568       78.7247922963
H                56.4156757689       44.7952683065       78.9688183952
N                53.6870949967       45.9908709205       80.4112918548
C                53.0305700517       46.1973138939       81.6892787183
C                51.9635724345       45.1071425479       81.8370652367
O                51.4380195108       44.6372599490       80.8314881510
C                52.3628895384       47.5793568755       81.7448579397
C                51.8670811302       47.9455881623       83.1489200360
C                52.9946565998       47.9312325717       84.1669277465
O                53.5890067784       46.9105894107       84.4866400647
N                53.3335553059       49.1317778987       84.6654912620
H                53.0559881494       45.8367206765       79.6339161284
H                53.7885456152       46.1162037262       82.4730689772
H                53.0947316666       48.3179799040       81.4114856707
H                51.5137947772       47.5846815619       81.0572187701
H                51.4006810724       48.9293835304       83.1202939679
H                51.1166710145       47.2207954607       83.4748352925
H                52.8253887381       49.9678550091       84.4349082790
H                54.0410570744       49.1708807524       85.3822796285
N                51.7021874518       44.6718976656       83.0764622622
C                50.5578774399       43.8087348662       83.2650061161
C                49.2664054278       44.6121583459       83.1000635711
O                49.1592775879       45.7728678707       83.4793832771
C                50.5358281219       43.1698605080       84.6482099494
C                50.3256199351       44.2619325736       85.7511474680
O                49.2967831354       44.1520950340       86.4469649346
O                51.2106320478       45.1320821347       85.8511524189
H                52.0168345113       45.1709560574       83.9046609940
H                50.5969334316       43.0426382753       82.4841465659
H                49.7135815024       42.4530300447       84.7077038223
H                51.4805096167       42.6593545218       84.8398352205
N                48.2793304188       43.9201253913       82.5226849635
C                46.9560708627       44.4428848969       82.2798165875
C                45.9236874940       43.4083050988       82.7252553046
O                46.1203740670       42.2084548902       82.5765416927
C                46.7318484182       44.7205809439       80.7832349557
C                47.7461340719       45.6978542399       80.1788545156
C                47.4758468246       45.8324069580       78.6813162017
C                47.6723047879       47.0669784678       80.8496753800
H                48.4841144345       43.0108522674       82.1289334358
H                46.8607256887       45.3578995355       82.8672656319
H                46.7997515963       43.7646322586       80.2596627733
H                45.7191675821       45.1058138039       80.6424579187
H                48.7522896657       45.2843930725       80.3228370268
H                48.2071359315       46.4910225045       78.2220250269
H                47.5259329550       44.8644212261       78.1886972695
H                46.4832328994       46.2430351159       78.5161714751
H                48.3302004156       47.7550839402       80.3282532194
H                46.6531394464       47.4463575006       80.8139578568
H                48.0031888478       47.0038306389       81.8835272924
N                40.0957424987       45.6394137213       79.4959465731
C                41.0559815921       46.5324623910       78.8907483042
C                40.7832602742       46.5769648761       77.3861044414
O                40.3847278207       45.5824165833       76.7910013033
C                42.4999586553       46.0558895216       79.1584766180
C                43.4986603444       46.9873829926       78.5335743759
C                44.0034357804       48.0745628945       79.2351354492
C                43.9117318096       46.7891051820       77.2208807596
C                44.9171417710       48.9321678691       78.6455838539
C                44.8263976182       47.6437081373       76.6335389256
C                45.3405924562       48.7126891578       77.3468297898
H                39.8880865213       44.8035988815       78.9641019352
H                40.8980929323       47.5160154286       79.3421935075
H                42.6345338369       45.9937501839       80.2406187089
H                42.6178549642       45.0498247369       78.7509594384
H                43.6772693568       48.2381463852       80.2518931637
H                43.5126504152       45.9543461333       76.6616853559
H                45.2956962754       49.7700178412       79.2067547561
H                45.1402341248       47.4692595093       75.6166213192
H                46.0729150634       49.3557922267       76.8853433691
N                42.3329400683       48.9637919034       73.7856307247
C                43.1215895383       50.0369791269       73.2232843123
C                43.2091462137       49.9361585853       71.7125289753
O                42.8525250494       48.9392470349       71.0950984689
C                44.5573902550       50.0947906318       73.8385590247
O                45.0808427887       51.3890791646       73.6873517397
C                45.5148726429       49.1034851279       73.1901972408
H                42.0953556366       48.1567353251       73.2188563936
H                42.6279737412       50.9815219056       73.4954751395
H                44.4380334387       49.8432810748       74.9011736240
H                44.5886904524       51.9941853748       74.2581579394
H                46.4383419507       49.0583770418       73.7601409754
H                45.0590235241       48.1184862420       73.1541835334
H                45.7570151752       49.4131054367       72.1766840046
N                55.7523880092       43.7556592466       65.4574952405
C                55.8541639842       42.5135773983       66.1873182424
C                55.0267940699       42.6614690357       67.4736122190
O                55.2371221617       43.5834214559       68.2522291888
C                57.3151978691       42.2430986199       66.5563238471
O                58.0641462401       42.1356962382       65.3678220515
H                56.2161573938       44.5535146330       65.8807795496
H                55.4687897644       41.7171651351       65.5438468397
H                57.6675621337       43.0781836971       67.1785708493
H                57.3623819061       41.3126916776       67.1398240012
H                58.9917090620       41.9943202557       65.5894566025
N                54.0696889238       41.7494489879       67.6230297879
C                53.1481806768       41.7301838049       68.7421111127
C                53.3339973399       40.4079799301       69.4932266303
O                53.2610880255       39.3263850639       68.9169112803
C                51.7031779879       41.8617051878       68.2264381366
C                50.7048246861       41.7051162053       69.3689767568
C                51.5208802864       43.2097578900       67.5361120449
H                53.9761090925       40.9980999853       66.9500399891
H                53.4072653091       42.5726480896       69.3884849861
H                51.5536210966       41.0564131056       67.4989851301
H                49.6978623040       41.8396744015       68.9857175031
H                50.7803697176       40.7146533517       69.8117697256
H                50.8906116266       42.4521442980       70.1379026950
H                50.5448253163       43.2565910020       67.0630894293
H                51.5980849562       44.0141368360       68.2648085633
H                52.2866965488       43.3570069414       66.7774158078
N                53.5776859791       40.5478494747       70.7976161619
C                53.7327042839       39.4417650176       71.7295287017
C                52.7353827438       39.7013457667       72.8680697221
O                52.7965012957       40.7166899464       73.5507738194
C                55.1919140267       39.3903889287       72.2179453046
C                55.4343394313       38.5473403371       73.4710620613
C                56.8646111848       38.7818030999       73.9725539313
C                57.0900169584       38.1507789417       75.3437890360
N                58.4861874782       38.3958719415       75.8081917767
H                53.6276411659       41.4837703460       71.1937056231
H                53.4669583379       38.5183089416       71.2071613125
H                55.8054287955       39.0156230147       71.3959456239
H                55.4975425800       40.4192276692       72.4180093558
H                54.7181681958       38.8390202550       74.2402751176
H                55.2776910800       37.4928301643       73.2369818318
H                57.5519084866       38.3663506355       73.2352490243
H                57.0314461090       39.8587363356       74.0387216993
H                56.4040647088       38.6072034409       76.0594609676
H                56.9157789585       37.0756506980       75.2811857107
H                58.6306263797       38.0062470977       76.7540198484
H                59.1591456958       37.9602338622       75.1581747098
H                58.6727970643       39.4112612899       75.8284463948
N                51.8220681779       38.7458585515       73.0301050763
C                50.7731334487       38.7501931753       74.0345437199
C                50.9597399234       37.4435436740       74.8069592433
O                50.7301083497       36.3438560838       74.3065936749
C                49.3829730996       38.8391645914       73.3766996001
C                49.1762321664       40.2461935525       72.7987718617
C                48.2959582364       38.4921995202       74.3924600046
C                48.0836372370       40.2989973043       71.7367752826
H                51.7702797250       37.9753672045       72.3719744524
H                50.9359300009       39.6053721120       74.6974581173
H                49.3638907351       38.1027361463       72.5662504461
H                48.9215252087       40.9259989527       73.6147115337
H                50.1123698532       40.5903827657       72.3518435436
H                47.3146959825       38.6185415538       73.9457952131
H                48.3839013843       37.4598050673       74.7256434657
H                48.3625607988       39.1490660241       75.2567112466
H                47.9891837071       41.3119836071       71.3544638181
H                48.3317606362       39.6374225936       70.9087364625
H                47.1206426012       40.0002601022       72.1437812084
N                51.4938418262       37.5978608237       76.0203183827
C                51.7160455922       36.4762391935       76.9084673381
C                50.8634847926       36.6555782090       78.1630013377
O                50.6027325951       37.7599059316       78.6245163263
C                53.2118068308       36.2985708891       77.2162283254
C                53.8615325564       37.4346047975       78.0127878969
C                55.2650979606       36.9763164149       78.4114867813
N                55.9814951686       37.9874262698       79.1751037067
C                57.2377723567       37.8269799714       79.5913878683
N                58.0246751080       36.8870987006       79.0392522038
N                57.7589147093       38.7058116657       80.4326421650
H                51.5259658543       38.5236744477       76.4404262235
H                51.3595761252       35.5757306460       76.3959278410
H                53.3122901845       35.3609392404       77.7630720148
H                53.7223935895       36.1877507042       76.2578063521
H                53.9016670210       38.3359991762       77.4017933125
H                53.2685266884       37.6468896545       78.9040995190
H                55.1620287855       36.0736630339       79.0197042485
H                55.8213882153       36.7349085890       77.5021936909
H                55.4241858950       38.6776902795       79.6701765185
H                57.5990958286       36.0656325859       78.6329035006
H                58.9332968936       36.7348605249       79.4571993375
H                57.1710969644       39.4409151707       80.8088150706
H                58.7207949192       38.6533055137       80.7277139926
N                50.4023103433       35.5143386918       78.6885022871
C                49.5275281333       35.5088701909       79.8404317933
C                50.2900436814       35.0354728336       81.0698445837
O                51.0339583563       34.0638547914       81.0126129590
C                48.3450159244       34.5467459101       79.6439443131
C                47.2940687510       34.6950587807       80.7403222555
C                46.2145092635       33.5686906653       80.6045382893
O                45.3013515119       33.7461949822       79.7849631694
O                46.3977418841       32.5639345840       81.3324845056
H                50.6886875005       34.6199628765       78.2973561337
H                49.1613149435       36.5288416613       79.9925011334
H                47.8700992090       34.7463511106       78.6809492071
H                48.7234771993       33.5203451729       79.6397190554
H                47.7350579058       34.6086859564       81.7394169473
H                46.7959168522       35.6612525613       80.6520662634
N                54.5455433146       32.6178641820       82.7947797132
C                54.0456167648       33.1507601310       81.5523340507
C                53.8090006542       32.0102477932       80.5531164553
O                54.2884821416       30.9003711034       80.7029528057
C                55.0903029636       34.0967637096       80.9202449098
C                55.3242081576       35.3129937561       81.7530320838
C                56.3897454299       35.5688761401       82.5717414362
C                54.4295298558       36.4191013353       81.8954308485
N                56.2281043931       36.7742532270       83.1919440743
C                55.0263154333       37.3057673922       82.8286417428
C                53.1878411414       36.7350759354       81.3428049134
C                54.3826619406       38.4656321446       83.2470464887
C                52.5621756967       37.8931092012       81.7508011218
C                53.1435564731       38.7369966731       82.7069070074
H                55.3969470245       32.0754523264       82.7150280050
H                53.1076278911       33.6708329201       81.7597750728
H                56.0196213049       33.5386613211       80.8005617914
H                54.6976685563       34.3622052393       79.9381326031
H                57.2599537982       34.9688951182       82.7541060157
H                56.8333261655       37.1410965320       83.9076611590
H                52.7057850396       36.0714525652       80.6408775754
H                54.8145563042       39.1164280158       83.9913561985
H                51.5840786683       38.1431044940       81.3619223447
H                52.5847022766       39.5977332737       83.0511093860
N                53.3601156838       32.3272817592       76.0565905280
C                53.0593994545       33.1432238451       74.8929050896
C                51.7684423247       32.5862364292       74.2704443503
O                51.6863926995       31.3983522128       73.9816487151
C                54.2163850101       33.1434313016       73.8890637374
O                55.3636185624       33.5666506738       74.5880516213
C                53.8786685145       34.0795256788       72.7271539452
H                54.0005200300       31.5584212261       75.9448984576
H                52.8958702031       34.1653916305       75.2438437621
H                54.3514062043       32.1198000353       73.5008793685
H                56.1081831188       33.5810749201       73.9740961044
H                54.6926930303       34.1119474657       72.0019056512
H                52.9812165957       33.7363369510       72.2143798878
H                53.7029746654       35.0883680568       73.0959477642
N                50.7549439046       33.4530797978       74.1635656050
C                49.4249471467       33.0229069993       73.7836348269
C                49.0693880536       33.5000520107       72.3758090953
O                48.5342059034       32.7521860506       71.5696611789
C                48.3850231379       33.4430436650       74.8410488321
C                46.9702395009       33.1005106965       74.3803839165
C                48.6941901880       32.7352635646       76.1601779864
H                50.8716016430       34.4336527322       74.4070312855
H                49.4448700471       31.9274102218       73.7280391908
H                48.4575903328       34.5257010754       74.9887871585
H                46.2677577496       33.2768497339       75.1916755565
H                46.6702576329       33.6982081391       73.5226250324
H                46.9059123661       32.0507621818       74.1028761279
H                47.9850511671       33.0387554133       76.9281144231
H                48.6049119116       31.6580703252       76.0292749899
H                49.6999940621       32.9715656726       76.5004462201
N                49.4086014745       34.7628031868       72.0721441910
C                49.3424481325       35.2028469464       70.6928030393
C                50.6374326237       35.9406340371       70.3691692198
O                51.1528084032       36.7180920149       71.1602299359
C                48.0904969565       36.0685587888       70.4254005157
C                47.5202483247       35.8755933468       69.0467896493
C                47.2853530205       36.9592273463       68.2142128490
C                47.1637883506       34.6065288807       68.5966844525
C                46.7005025348       36.7930485766       66.9735764389
C                46.5966375524       34.4250818997       67.3515458734
C                46.3482495515       35.5237188090       66.5300350632
O                45.7785992874       35.3192492832       65.3195388439
H                49.8794511889       35.3755872630       72.7332475162
H                49.2783308953       34.2961733223       70.0818713826
H                47.3353112911       35.7631035074       71.1540685249
H                48.3188776331       37.1216492173       70.5943373043
H                47.5593635777       37.9507202819       68.5395346242
H                47.3256779546       33.7456433314       69.2311215219
H                46.4862207543       37.6418979890       66.3433396463
H                46.3249663392       33.4394422221       67.0047215386
H                45.5973343629       36.1854534762       64.8751000406
N                51.1489939717       35.6793941114       69.1652307222
C                52.4138815892       36.2120613174       68.6971188113
C                52.3866725830       36.1230907429       67.1791987999
O                52.1250556113       35.0661803938       66.6198295085
C                53.5952592292       35.3609023392       69.1908946257
C                54.9211820322       35.7828329421       68.5726313191
C                56.0843516400       34.9002423029       69.1369082758
O                56.2023676702       34.8535112008       70.3753471157
O                56.7989176860       34.3140955383       68.2999125791
H                50.7447717288       34.9680197333       68.5718021458
H                52.5235143225       37.2446091411       69.0368323486
H                53.6775792798       35.4316929906       70.2756095625
H                53.4039859985       34.3163951375       68.9274052693
H                54.9110582644       35.6601453181       67.4869137363
H                55.1312736520       36.8305552058       68.8020088464
N                42.1162288289       42.0177932895       67.5201565582
C                42.4978853182       40.8311433861       68.2646050195
C                41.7780992166       40.9412643188       69.6106064166
O                41.9577236660       41.8709965499       70.3897025610
C                44.0261733574       40.7272469900       68.3846219532
C                44.6243098403       40.4199446986       67.0050141301
C                44.3836153548       39.6553546609       69.4111617731
C                46.1185863896       40.7105002737       66.9303175411
H                42.3482796424       42.9036607261       67.9595169266
H                42.1039889103       39.9600430373       67.7334112724
H                44.3920169551       41.6973469314       68.7343568168
H                44.4281077715       39.3703080988       66.7728354630
H                44.1028449161       41.0273692806       66.2610588560
H                45.4594487378       39.5864740151       69.5354312327
H                43.9423458008       39.9029226097       70.3747001698
H                43.9991431884       38.6869876364       69.0966363832
H                46.4819261774       40.5229211693       65.9247999525
H                46.3026131977       41.7504300391       67.1874188248
H                46.6637365499       40.0805861622       67.6247441780
N                40.1288681841       38.6253994721       73.0064602247
C                40.4106642238       37.4950134753       73.8660144324
C                39.3343032412       37.3892967222       74.9433366613
O                39.0997081811       38.3017684104       75.7356268241
C                41.8329863789       37.6032497799       74.4787896802
C                42.0196805213       38.9039390494       75.2684173767
C                42.8699639179       37.4605549983       73.3695414597
C                43.4045181466       39.0531920677       75.8913211093
H                39.9355888742       39.5124955266       73.4539046831
H                40.3586149270       36.6003163300       73.2371465662
H                41.9430393303       36.7569074717       75.1634251843
H                41.8226590063       39.7570834447       74.6158655274
H                41.2764509284       38.9221302477       76.0666223591
H                43.8667303891       37.3835738649       73.7917663667
H                42.6588249740       36.5687705993       72.7857731853
H                42.8317887657       38.3187950092       72.7010152668
H                43.3946576770       39.9006620339       76.5743472593
H                43.6529438537       38.1561700896       76.4498789645
H                44.1585233532       39.2259339092       75.1279062637
H                43.1975890325       46.0225998223       69.7777054005
H                40.9960226948       44.3061260832       72.5424614608
H                40.4447618136       42.8861087436       75.0111857597
H                38.6031527843       40.8163551775       77.7622268851
H                47.1792602797       39.2798963101       81.6899143162
H                57.4768794848       47.9354834572       66.6433028938
H                56.1659154863       51.2266399171       71.0222941043
H                45.0674963736       43.7060425796       83.1474983127
H                40.4041916437       45.3635102837       80.2951564442
H                40.9299399314       47.4246146662       76.8762270920
H                42.7647364238       48.6123096976       74.4927461088
H                43.5691837990       50.7023941468       71.1803109734
H                56.1178340099       43.6552703107       64.6411795650
H                50.1871581207       35.5192125189       81.9389881152
H                54.7225608862       33.2938221834       83.3620059112
H                53.2432418074       32.1644925048       79.7431007170
H                53.7249111952       32.8421237253       76.6983552706
H                52.5837730505       36.9333307883       66.6272364149
H                42.5285803352       42.0161268701       66.7201793971
H                41.1272670917       40.2348614679       69.8888375389
H                40.8346562780       38.7775375172       72.4691361310
H                38.7884695723       36.5553578931       75.0246486241
