582
Properties=species:S:1:pos:R:3 pbc="F F F"
N      44.49900000      50.52300000      61.78100000 
C      44.81100000      50.38900000      63.18200000 
C      44.74800000      48.96000000      63.57900000 
O      44.42500000      48.04300000      62.82300000 
C      43.90200000      51.27300000      64.02700000 
C      42.46300000      50.87900000      64.01500000 
O      42.18900000      49.66400000      63.72700000 
O      41.61200000      51.76300000      64.31200000 
H      44.03000000      49.76600000      61.36000000 
H      45.83200000      50.71100000      63.33500000 
H      44.23900000      51.28500000      65.06000000 
H      43.98600000      52.29100000      63.66600000 
N      45.17100000      48.76500000      64.83100000 
C      45.12800000      47.52200000      65.54300000 
C      44.26300000      47.78100000      66.76100000 
O      44.51900000      48.69000000      67.48300000 
C      46.52500000      47.14900000      66.00500000 
C      46.59900000      45.91900000      66.88700000 
C      46.00800000      44.69700000      66.21100000 
C      48.05600000      45.66600000      67.24500000 
H      45.60300000      49.52500000      65.30500000 
H      44.69500000      46.76900000      64.90000000 
H      47.12800000      46.99100000      65.11900000 
H      46.92900000      47.99900000      66.52500000 
H      46.04200000      46.11100000      67.80500000 
H      46.17200000      43.81800000      66.79500000 
H      44.95200000      44.79800000      66.02600000 
H      46.50000000      44.55700000      65.24000000 
H      48.14200000      44.82200000      67.93500000 
H      48.61600000      45.44100000      66.36400000 
H      48.49500000      46.53300000      67.72300000 
N      43.24700000      46.94000000      66.95100000 
C      42.35900000      47.02900000      68.07900000 
C      42.60500000      45.82600000      68.95700000 
O      42.77400000      44.72100000      68.43800000 
C      40.92800000      47.02000000      67.59100000 
C      40.62700000      48.12600000      66.59300000 
C      39.17100000      48.10500000      66.19900000 
C      41.01900000      49.47800000      67.14700000 
H      43.02500000      46.24700000      66.24700000 
H      42.58700000      47.92700000      68.62200000 
H      40.70900000      46.07100000      67.14900000 
H      40.26300000      47.13100000      68.46700000 
H      41.22400000      47.93200000      65.71500000 
H      38.99000000      48.84000000      65.41400000 
H      38.86800000      47.15100000      65.85000000 
H      38.54800000      48.38400000      67.05500000 
H      40.75800000      50.26400000      66.46300000 
H      40.53100000      49.65100000      68.09200000 
H      42.08500000      49.53600000      67.30600000 
N      42.59300000      46.05300000      70.27600000 
C      42.83600000      44.98400000      71.22700000 
C      41.75300000      45.03100000      72.26800000 
O      41.58400000      46.08100000      72.90200000 
C      44.17800000      45.17700000      71.89200000 
C      45.35500000      45.14300000      70.92800000 
C      46.63200000      45.56900000      71.65400000 
C      45.53300000      43.79300000      70.31300000 
H      42.55000000      46.96800000      70.62000000 
H      42.79000000      44.04000000      70.68500000 
H      44.14900000      46.11400000      72.41200000 
H      44.31900000      44.39500000      72.63900000 
H      45.16200000      45.87500000      70.14400000 
H      47.47300000      45.55800000      70.98200000 
H      46.53700000      46.56100000      72.06100000 
H      46.83400000      44.88700000      72.47400000 
H      46.35800000      43.77600000      69.61100000 
H      45.72000000      43.04500000      71.07000000 
H      44.63900000      43.49200000      69.76600000 
N      41.07000000      43.92200000      72.46800000 
C      40.00800000      43.81400000      73.44500000 
C      40.31300000      42.65700000      74.37500000 
O      40.56500000      41.56300000      73.89900000 
C      38.69300000      43.43200000      72.76200000 
C      38.41300000      44.31900000      71.57100000 
O      38.35400000      45.56900000      71.75700000 
O      38.23200000      43.74800000      70.47000000 
H      41.25100000      43.12500000      71.87900000 
H      39.92300000      44.74400000      73.96600000 
H      38.77000000      42.42300000      72.42200000 
H      37.88600000      43.51500000      73.47200000 
N      51.43100000      42.88500000      77.02100000 
C      51.43600000      43.05900000      75.57700000 
C      52.66300000      43.80500000      75.20800000 
O      52.98600000      44.84300000      75.86200000 
C      50.27100000      43.93300000      75.09700000 
C      48.88500000      43.46700000      75.45700000 
C      48.59700000      42.21200000      75.96700000 
C      47.84500000      44.35100000      75.25200000 
C      47.30200000      41.85700000      76.27500000 
C      46.54700000      44.00700000      75.55100000 
C      46.30100000      42.74900000      76.08100000 
O      44.96900000      42.46500000      76.40200000 
H      51.44200000      43.70400000      77.57400000 
H      51.42200000      42.10200000      75.11900000 
H      50.41400000      44.92600000      75.50600000 
H      50.36500000      44.00500000      74.03000000 
H      49.38500000      41.48900000      76.11900000 
H      48.05500000      45.32400000      74.86800000 
H      47.08500000      40.89000000      76.67000000 
H      45.74400000      44.69000000      75.40100000 
H      44.87000000      41.64400000      76.87200000 
N      53.35800000      43.37000000      74.17700000 
C      54.51100000      44.04200000      73.63000000 
C      54.19400000      44.39700000      72.23600000 
O      53.75400000      43.51500000      71.46300000 
C      55.70500000      43.08300000      73.66400000 
C      56.07400000      42.66100000      75.04200000 
C      55.37500000      41.63000000      75.67700000 
C      57.08200000      43.30700000      75.71400000 
C      55.70300000      41.25800000      76.97500000 
C      57.41700000      42.93900000      76.99800000 
C      56.72000000      41.91100000      77.64800000 
O      57.08600000      41.59400000      78.91400000 
H      53.09700000      42.49100000      73.77100000 
H      54.72900000      44.90700000      74.23700000 
H      55.45700000      42.24400000      73.03700000 
H      56.54700000      43.59700000      73.19900000 
H      54.58500000      41.12300000      75.16500000 
H      57.60000000      44.09900000      75.24400000 
H      55.17600000      40.47500000      77.46300000 
H      58.19900000      43.43900000      77.54100000 
H      56.41200000      41.20900000      79.44700000 
N      54.36500000      45.65000000      71.87100000 
C      53.98900000      46.14800000      70.55200000 
C      55.12600000      47.02200000      70.09600000 
O      55.29400000      48.13800000      70.60200000 
C      52.66800000      46.91400000      70.61700000 
C      51.53700000      46.02400000      71.15800000 
C      52.28300000      47.46500000      69.26200000 
C      50.97500000      46.51000000      72.46100000 
H      54.77200000      46.28600000      72.50700000 
H      53.89500000      45.30400000      69.90000000 
H      52.82300000      47.72400000      71.30900000 
H      50.76000000      45.97200000      70.41900000 
H      51.89800000      44.99800000      71.26900000 
H      51.43700000      48.12800000      69.36800000 
H      53.08300000      48.01700000      68.80000000 
H      51.99800000      46.66200000      68.60800000 
H      50.12700000      45.89800000      72.78100000 
H      51.71300000      46.48300000      73.24800000 
H      50.62900000      47.52000000      72.36500000 
N      55.95900000      46.50100000      69.19400000 
C      57.20300000      47.12100000      68.85300000 
C      57.37000000      47.05400000      67.37400000 
O      57.20300000      45.96300000      66.79200000 
C      58.33900000      46.42700000      69.56600000 
O      58.09300000      46.60100000      70.92800000 
C      59.70800000      47.00100000      69.19800000 
H      55.76500000      45.57700000      68.82400000 
H      57.16900000      48.15100000      69.19100000 
H      58.31200000      45.37300000      69.31000000 
H      58.65300000      46.06200000      71.49200000 
H      60.45300000      46.56600000      69.83600000 
H      59.96200000      46.79200000      68.16700000 
H      59.69200000      48.07200000      69.34700000 
N      57.71300000      48.15100000      66.71400000 
C      57.77400000      48.13400000      65.27200000 
C      58.86700000      49.00300000      64.76900000 
O      59.39300000      49.91200000      65.44900000 
C      56.43200000      48.52700000      64.65300000 
C      55.99800000      49.91500000      64.93000000 
C      56.15900000      50.98400000      64.10900000 
C      55.21800000      50.39300000      66.07700000 
N      55.55500000      52.09700000      64.64100000 
C      54.96100000      51.77000000      65.85300000 
C      54.75600000      49.81200000      67.24000000 
C      54.24600000      52.52300000      66.74400000 
C      54.03800000      50.57400000      68.14400000 
C      53.78800000      51.92900000      67.88500000 
H      57.83100000      49.02100000      67.19500000 
H      57.99400000      47.12500000      64.98600000 
H      56.47600000      48.35100000      63.60800000 
H      55.71000000      47.84700000      65.06000000 
H      56.66900000      51.03600000      63.17300000 
H      55.51600000      52.98400000      64.22700000 
H      54.95000000      48.77300000      67.45100000 
H      54.05000000      53.57500000      66.55300000 
H      53.68600000      50.13500000      69.04500000 
H      53.22100000      52.48800000      68.59700000 
N      59.20400000      48.76600000      63.48800000 
C      60.16500000      49.51500000      62.75600000 
C      59.45100000      50.57400000      61.93200000 
O      58.22800000      50.54000000      61.72300000 
C      60.87000000      48.62200000      61.74200000 
C      61.48800000      47.39500000      62.39600000 
O      61.44500000      46.31900000      61.73400000 
O      62.01800000      47.51200000      63.53800000 
H      58.69500000      48.05900000      63.00500000 
H      60.86500000      49.96300000      63.41200000 
H      60.19400000      48.30000000      60.98300000 
H      61.67900000      49.16600000      61.28800000 
N      63.17800000      52.10400000      64.67400000 
C      62.18900000      51.40800000      65.49700000 
C      61.82000000      52.25200000      66.67100000 
O      62.63000000      52.95100000      67.27500000 
C      62.91700000      50.13800000      65.91700000 
C      64.39200000      50.50900000      65.85000000 
C      64.45900000      51.40800000      64.63500000 
H      61.31300000      51.20200000      64.93100000 
H      62.60500000      49.80700000      66.90100000 
H      62.68900000      49.34800000      65.21500000 
H      64.66600000      51.06800000      66.73200000 
H      65.03300000      49.64900000      65.76300000 
H      65.27100000      52.10400000      64.67100000 
H      64.53800000      50.83600000      63.72400000 
N      60.53500000      52.14400000      67.03600000 
C      59.99500000      52.89800000      68.13800000 
C      58.89300000      52.06200000      68.71600000 
O      57.86100000      51.87100000      68.09600000 
C      59.47100000      54.25400000      67.69500000 
C      58.91800000      55.07300000      68.85700000 
C      59.53400000      56.45600000      68.90500000 
C      59.21700000      57.24000000      67.65300000 
N      60.13300000      58.42600000      67.55300000 
H      59.92500000      51.57000000      66.49300000 
H      60.78000000      53.04800000      68.86500000 
H      60.31700000      54.77200000      67.23600000 
H      58.73400000      54.10200000      66.92900000 
H      57.84900000      55.14200000      68.79400000 
H      59.14000000      54.57400000      69.79500000 
H      59.19100000      57.00500000      69.77200000 
H      60.62000000      56.35200000      68.98900000 
H      59.35900000      56.65800000      66.76100000 
H      58.20100000      57.62200000      67.67100000 
H      59.86000000      59.02400000      66.79600000 
H      60.12900000      58.95300000      68.39900000 
H      61.06700000      58.11400000      67.37500000 
N      59.11500000      51.54800000      69.93200000 
C      58.11100000      50.72700000      70.56100000 
C      56.97300000      51.53000000      71.06500000 
O      57.06800000      52.76100000      71.29900000 
C      58.74700000      49.97700000      71.73000000 
H      59.92700000      51.77200000      70.41900000 
H      57.74400000      50.02300000      69.83800000 
H      58.03600000      49.33100000      72.17800000 
H      59.58700000      49.39100000      71.37500000 
H      59.10500000      50.69100000      72.46200000 
N      55.85500000      50.86300000      71.32900000 
C      54.76700000      51.48700000      72.00400000 
C      55.16300000      51.84200000      73.41400000 
O      56.16300000      51.33800000      73.95800000 
C      53.58300000      50.53100000      72.05000000 
C      52.25500000      51.22400000      72.06400000 
C      51.87100000      52.27000000      71.34300000 
C      51.10900000      50.79900000      72.85000000 
N      50.54300000      52.56100000      71.59700000 
C      50.05600000      51.66600000      72.50600000 
C      50.90800000      49.78000000      73.79300000 
C      48.78500000      51.50500000      73.09400000 
C      49.64600000      49.65800000      74.34600000 
C      48.60700000      50.53700000      73.97600000 
H      55.79800000      49.89400000      71.09500000 
H      54.49700000      52.38000000      71.49300000 
H      53.65200000      49.87000000      71.18700000 
H      53.67400000      49.87200000      72.92200000 
H      52.42200000      52.87700000      70.63900000 
H      50.01600000      53.28900000      71.16400000 
H      51.68800000      49.13100000      74.06600000 
H      47.98700000      52.17400000      72.79100000 
H      49.47400000      48.88900000      75.06300000 
H      47.64200000      50.39000000      74.42900000 
N      54.38700000      52.69600000      74.06100000 
C      54.71500000      53.05600000      75.42800000 
C      54.42300000      51.93600000      76.36800000 
O      55.24000000      51.62700000      77.28000000 
C      54.00300000      54.33200000      75.86600000 
C      52.48900000      54.25000000      75.87500000 
O      51.95000000      53.51900000      74.96600000 
O      51.87500000      54.90200000      76.72700000 
H      53.49200000      52.97900000      73.72000000 
H      55.76800000      53.21800000      75.48300000 
H      54.33900000      54.59200000      76.84800000 
H      54.29600000      55.12300000      75.19100000 
N      53.25200000      51.30200000      76.20000000 
C      52.86500000      50.24100000      77.10700000 
C      53.41200000      48.94500000      76.59000000 
O      52.68500000      48.01000000      76.16300000 
C      51.34900000      50.23400000      77.31100000 
C      50.96600000      50.20400000      78.78100000 
C      51.28400000      51.51200000      79.45900000 
N      50.49300000      52.60900000      78.93300000 
C      49.43400000      53.17500000      79.49000000 
N      49.05500000      52.86400000      80.72600000 
N      48.72900000      54.06100000      78.81200000 
H      52.65800000      51.61700000      75.53800000 
H      53.34600000      50.42200000      78.05800000 
H      50.92400000      51.08900000      76.83200000 
H      50.93700000      49.36500000      76.81200000 
H      49.91700000      49.99700000      78.89100000 
H      51.52000000      49.41200000      79.28100000 
H      51.12700000      51.43400000      80.53400000 
H      52.32700000      51.79000000      79.33300000 
H      50.77200000      52.98100000      78.05300000 
H      49.56900000      52.26800000      81.31000000 
H      48.23300000      53.28800000      81.11600000 
H      48.95800000      54.27300000      77.87400000 
H      47.97100000      54.54100000      79.22300000 
N      54.74900000      48.85900000      76.58400000 
C      55.45400000      47.79400000      75.99000000 
C      55.81900000      46.77100000      77.06800000 
O      56.97700000      46.65700000      77.48600000 
C      56.66800000      48.27100000      75.27600000 
C      57.24500000      47.17100000      74.43300000 
O      56.53200000      46.38800000      73.87000000 
N      58.59000000      47.14300000      74.35200000 
H      55.25300000      49.63600000      76.96700000 
H      54.79300000      47.28700000      75.28600000 
H      56.40100000      49.09600000      74.63300000 
H      57.40800000      48.63600000      75.98900000 
H      59.02700000      46.43700000      73.80600000 
H      59.15900000      47.78200000      74.83800000 
N      54.77100000      46.08000000      77.53300000 
C      54.91200000      45.08300000      78.56700000 
C      54.55500000      45.64400000      79.91700000 
O      55.38100000      46.24800000      80.59900000 
H      53.93100000      46.08200000      77.01600000 
H      54.25700000      44.25100000      78.30400000 
H      55.92100000      44.72500000      78.60000000 
N      40.16800000      45.59600000      79.34500000 
C      41.11700000      46.45800000      78.68700000 
C      40.78800000      46.50400000      77.23000000 
O      40.58000000      45.43600000      76.61000000 
C      42.53700000      45.92600000      78.91900000 
C      43.56400000      46.74200000      78.19100000 
C      44.09900000      47.86500000      78.79700000 
C      43.96600000      46.40400000      76.94200000 
C      45.04100000      48.63400000      78.14100000 
C      44.91400000      47.17000000      76.26200000 
C      45.45800000      48.28500000      76.85900000 
H      39.87000000      44.76100000      78.86800000 
H      41.01600000      47.44400000      79.12500000 
H      42.69900000      45.92700000      79.96700000 
H      42.55800000      44.90400000      78.55600000 
H      43.78900000      48.14100000      79.78700000 
H      43.56100000      45.53100000      76.45400000 
H      45.46100000      49.50400000      78.61600000 
H      45.21800000      46.89400000      75.27500000 
H      46.18300000      48.86800000      76.35800000 
N      40.81500000      47.69700000      76.66300000 
C      40.76700000      47.90900000      75.23100000 
C      41.83100000      48.90100000      74.89000000 
O      42.05100000      49.84500000      75.64900000 
C      39.40700000      48.48500000      74.81100000 
O      38.43300000      47.45100000      74.84300000 
C      39.41100000      49.02700000      73.40900000 
H      40.99900000      48.48300000      77.19500000 
H      40.91900000      46.97400000      74.70600000 
H      39.15700000      49.26400000      75.51200000 
H      38.03600000      47.31400000      75.73900000 
H      38.40800000      49.31900000      73.13900000 
H      40.05700000      49.90600000      73.32200000 
H      39.76300000      48.27800000      72.70800000 
N      42.44300000      48.75700000      73.72600000 
C      43.24100000      49.82900000      73.21400000 
C      43.32500000      49.71700000      71.70800000 
O      42.79500000      48.76800000      71.10400000 
C      44.64700000      49.80300000      73.83000000 
O      45.29000000      51.05900000      73.57800000 
C      45.48400000      48.67700000      73.28600000 
H      42.25000000      47.95500000      73.15000000 
H      42.80200000      50.75100000      73.46300000 
H      44.50000000      49.68300000      74.90000000 
H      45.16700000      51.67800000      74.26400000 
H      46.40300000      48.57400000      73.87400000 
H      44.95000000      47.77300000      73.31000000 
H      45.78000000      48.90900000      72.25700000 
N      44.01900000      50.68200000      71.10400000 
C      44.31000000      50.62100000      69.72200000 
C      45.66700000      51.21000000      69.49000000 
O      46.06600000      52.16900000      70.18400000 
C      43.30300000      51.40800000      68.90000000 
O      43.65900000      51.39100000      67.51000000 
H      44.48300000      51.34600000      71.66700000 
H      44.29900000      49.59000000      69.38700000 
H      42.33000000      50.98700000      69.05700000 
H      43.31300000      52.43300000      69.20700000 
H      43.87100000      50.49900000      67.22600000 
N      46.36500000      50.71200000      68.47900000 
C      47.57200000      51.28400000      68.00100000 
C      47.33300000      51.58700000      66.51900000 
O      47.44900000      50.74400000      65.68000000 
C      48.81100000      50.40800000      68.21100000 
C      48.90900000      50.01100000      69.67600000 
C      50.03700000      51.21700000      67.79800000 
C      48.21700000      48.71600000      70.04400000 
H      45.96900000      49.90600000      67.98900000 
H      47.73300000      52.19300000      68.54200000 
H      48.71400000      49.52900000      67.58500000 
H      49.97600000      49.91600000      69.91600000 
H      48.54900000      50.82800000      70.28200000 
H      50.91600000      50.61100000      67.86700000 
H      49.95500000      51.58100000      66.77700000 
H      50.14600000      52.05200000      68.44600000 
H      48.30000000      48.54900000      71.12300000 
H      47.16500000      48.75400000      69.80100000 
H      48.65800000      47.88500000      69.54400000 
N      46.91200000      52.81000000      66.22300000 
C      46.71100000      53.18400000      64.82700000 
C      48.00200000      53.30100000      64.11000000 
O      49.08700000      53.48700000      64.68500000 
C      46.02500000      54.55900000      64.89900000 
C      45.49900000      54.63600000      66.32900000 
C      46.53100000      53.89500000      67.14000000 
H      46.08700000      52.47100000      64.35200000 
H      46.75800000      55.33900000      64.73700000 
H      45.25900000      54.64500000      64.15300000 
H      45.36000000      55.66200000      66.66000000 
H      44.55600000      54.11900000      66.40100000 
H      47.40600000      54.53100000      67.32700000 
H      46.17100000      53.51900000      68.04800000 
N      47.91000000      53.27100000      62.79300000 
C      49.05600000      53.51100000      61.95100000 
C      49.45900000      54.95600000      61.97900000 
O      48.72700000      55.87300000      62.35600000 
C      48.78100000      53.04400000      60.53900000 
C      49.10900000      51.58500000      60.30000000 
C      50.61600000      51.36600000      60.21600000 
C      48.51100000      50.66700000      61.37400000 
H      47.02900000      53.07800000      62.34600000 
H      49.88400000      52.95100000      62.36900000 
H      47.74300000      53.23900000      60.31000000 
H      49.37600000      53.63300000      59.84800000 
H      48.65900000      51.32200000      59.36200000 
H      50.83500000      50.31400000      60.04500000 
H      51.02200000      51.92600000      59.37300000 
H      51.10400000      51.67300000      61.09400000 
H      48.68800000      49.63100000      61.10400000 
H      48.97300000      50.84600000      62.33000000 
H      47.45800000      50.81900000      61.47400000 
N      50.70400000      55.16700000      61.51300000 
C      51.37100000      56.44500000      61.52000000 
C      52.20100000      56.52300000      60.25300000 
O      53.41600000      56.77300000      60.29700000 
C      52.18100000      56.64900000      62.76600000 
C      52.99900000      55.41400000      63.10600000 
C      54.21400000      55.68900000      63.99000000 
C      55.50400000      55.58200000      63.20600000 
N      55.60300000      56.57900000      62.12500000 
H      51.25600000      54.35900000      61.31000000 
H      50.60000000      57.20100000      61.43600000 
H      52.83400000      57.50200000      62.61900000 
H      51.51700000      56.89100000      63.58200000 
H      52.33100000      54.69600000      63.61700000 
H      53.31300000      54.92500000      62.19600000 
H      54.14500000      56.67200000      64.42500000 
H      54.26500000      54.98100000      64.78900000 
H      56.36200000      55.72200000      63.84400000 
H      55.59000000      54.60700000      62.72900000 
H      56.54900000      56.47000000      61.70800000 
H      54.87600000      56.47100000      61.42000000 
H      55.52800000      57.50900000      62.48600000 
N      55.20000000      52.36800000      57.55400000 
C      55.72800000      51.58200000      58.65900000 
C      55.99400000      50.20500000      58.10600000 
O      55.13300000      49.66500000      57.38100000 
C      54.67200000      51.49000000      59.75700000 
C      54.97800000      50.37400000      60.73600000 
C      54.55500000      52.82500000      60.47400000 
H      54.42500000      51.96200000      57.10700000 
H      56.63700000      52.03100000      59.02700000 
H      53.73300000      51.28200000      59.26300000 
H      54.26000000      50.39300000      61.55200000 
H      54.91200000      49.41100000      60.26100000 
H      55.96700000      50.48600000      61.15000000 
H      53.73200000      52.81600000      61.15300000 
H      55.45900000      53.03600000      61.03100000 
H      54.39500000      53.64100000      59.76900000 
N      56.87800000      46.29300000      59.23000000 
C      56.88100000      45.37400000      60.33200000 
C      56.15600000      45.91200000      61.52600000 
O      56.01800000      47.14100000      61.72100000 
C      58.29200000      44.96600000      60.79300000 
C      59.15300000      44.50400000      59.65800000 
O      58.68500000      43.78100000      58.77800000 
N      60.38500000      44.89700000      59.69200000 
H      56.23200000      46.11500000      58.49800000 
H      56.38300000      44.47500000      59.98000000 
H      58.75100000      45.77700000      61.31900000 
H      58.17100000      44.13500000      61.48200000 
H      61.02500000      44.59700000      59.00300000 
H      60.75200000      45.52200000      60.44100000 
N      55.74100000      44.99800000      62.36600000 
C      55.20400000      45.26900000      63.69000000 
C      55.21800000      43.91500000      64.37400000 
O      54.75600000      42.94300000      63.82600000 
C      53.80000000      45.86300000      63.60600000 
C      52.97300000      45.72300000      64.89200000 
C      53.62700000      46.34200000      66.09200000 
C      51.62500000      46.38800000      64.66800000 
H      55.75900000      44.03300000      62.09400000 
H      55.87200000      45.93800000      64.19500000 
H      53.90400000      46.90100000      63.35600000 
H      53.28700000      45.37500000      62.81100000 
H      52.82700000      44.67200000      65.06600000 
H      53.04700000      46.13400000      66.97700000 
H      54.62900000      45.98900000      66.27800000 
H      53.67400000      47.42400000      65.98800000 
H      50.93600000      46.11800000      65.46400000 
H      51.73200000      47.44800000      64.66200000 
H      51.17500000      46.07900000      63.72600000 
N      55.80800000      43.90000000      65.57000000 
C      55.95000000      42.70600000      66.34100000 
C      55.03600000      42.77800000      67.55900000 
O      55.20300000      43.76900000      68.32300000 
C      57.38600000      42.55800000      66.80900000 
O      58.19800000      42.45900000      65.63900000 
H      56.23200000      44.72500000      65.94600000 
H      55.67300000      41.86000000      65.73100000 
H      57.65600000      43.43300000      67.38300000 
H      57.48600000      41.67700000      67.40600000 
H      59.10900000      42.70200000      65.80600000 
N      54.17500000      41.89200000      67.71500000 
C      53.23200000      41.87400000      68.83100000 
C      53.36200000      40.55400000      69.56000000 
O      53.25500000      39.46900000      68.94700000 
C      51.79800000      42.06600000      68.36200000 
C      50.81700000      41.86400000      69.50200000 
C      51.65800000      43.44900000      67.77300000 
H      54.08600000      41.11700000      67.06100000 
H      53.51100000      42.66300000      69.48300000 
H      51.60000000      41.32100000      67.58800000 
H      49.81300000      41.99800000      69.16100000 
H      50.89700000      40.87200000      69.93500000 
H      51.01100000      42.58400000      70.29000000 
H      50.66200000      43.58600000      67.34800000 
H      51.78300000      44.19900000      68.55100000 
H      52.37400000      43.63600000      67.00700000 
N      51.73400000      38.80400000      73.00400000 
C      50.74400000      38.85600000      74.06400000 
C      50.89200000      37.61200000      74.89300000 
O      50.71900000      36.49300000      74.34600000 
C      49.33200000      39.01600000      73.47600000 
C      49.24600000      40.40300000      72.87500000 
C      48.29000000      38.75300000      74.55000000 
C      47.99900000      40.64400000      72.04500000 
H      51.62100000      38.04100000      72.35100000 
H      50.96100000      39.70800000      74.67800000 
H      49.23400000      38.27300000      72.68900000 
H      49.30500000      41.12600000      73.67300000 
H      50.11200000      40.56300000      72.24800000 
H      47.30800000      38.95300000      74.17700000 
H      48.32000000      37.72800000      74.86900000 
H      48.46500000      39.38300000      75.40300000 
H      48.01400000      41.63600000      71.62800000 
H      47.94000000      39.94400000      71.24300000 
H      47.10100000      40.55400000      72.64600000 
N      42.19400000      42.13300000      67.56300000 
C      42.55300000      40.94600000      68.28100000 
C      41.84000000      41.02000000      69.61400000 
O      42.02200000      41.99500000      70.36400000 
C      44.07300000      40.80100000      68.37200000 
C      44.61100000      40.46700000      66.99500000 
C      44.44800000      39.73400000      69.40500000 
C      46.12600000      40.50900000      66.89100000 
H      42.50800000      43.01200000      67.90400000 
H      42.15900000      40.09100000      67.73800000 
H      44.47200000      41.74200000      68.68400000 
H      44.26600000      39.46700000      66.72900000 
H      44.18200000      41.14700000      66.27000000 
H      45.52200000      39.61500000      69.42300000 
H      44.12700000      39.99500000      70.37200000 
H      44.01500000      38.78600000      69.12700000 
H      46.44200000      40.30900000      65.89400000 
H      46.49000000      41.48300000      67.17500000 
H      46.58000000      39.78800000      67.54000000 
H      43.96780352      51.23914619      61.65866876 
H      40.30590181      42.79618463      75.36524101 
H      50.68927597      42.43867531      77.26725138 
H      59.96854855      51.33260672      61.53619785 
H      62.84756180      52.22556343      63.84572895 
H      53.62925225      45.52915401      80.27727976 
H      40.51486975      45.30587497      80.12314449 
H      51.77049654      56.37188110      59.36315178 
H      54.93831166      53.17411885      57.85680624 
H      56.85089364      49.73664327      58.32134916 
H      56.68380440      47.11951270      59.52860479 
H      53.53573397      40.54163862      70.54471504 
H      51.69795961      39.56304376      72.52176183 
H      51.12445475      37.68231523      75.86306214 
H      42.51725476      42.08616381      66.72436257 
H      41.22211736      40.28453246      69.89204413 
