 508 
 
N               187.4543341806       66.2303839966      109.4836558749
C               186.1899494065       65.8670914422      108.8724280130
C               185.0665569986       66.2945459780      109.8168884369
O               185.2036995737       66.2614474817      111.0367505345
C               186.1481308775       64.3632376254      108.5587896047
C               187.2361484188       64.0374717092      107.5276151823
C               184.7615067923       63.9902359908      108.0456763769
C               187.4729593981       62.5418540216      107.3516116657
H               187.6739618947       65.7342603306      110.3357086120
H               186.1021175738       66.4372715218      107.9434756505
H               186.3505898155       63.8188999483      109.4884343423
H               186.9455578447       64.4851391932      106.5754356711
H               188.1644989484       64.5132776480      107.8480272793
H               184.7596651073       62.9658700826      107.6862165630
H               184.0145613657       64.0879331275      108.8295965392
H               184.4779980780       64.6547081069      107.2317887171
H               188.3128884411       62.3754667956      106.6830687046
H               187.6972273876       62.0770546748      108.3084199336
H               186.6025709360       62.0529434091      106.9242626607
N               183.9596529880       66.7233272483      109.2094179477
C               182.8185969507       67.1869460826      109.9627954500
C               182.0645964606       65.9667335839      110.5294213103
O               182.1501103652       64.8675308563      110.0038966065
C               181.9454248907       68.0603859475      109.0696270249
C               182.6612808937       69.3269511874      108.6255358307
O               183.8439992442       69.5522651429      108.8521064642
N               181.8749522857       70.1792820612      107.9619580512
H               183.9124811330       66.7708350534      108.1978695652
H               183.1968347306       67.7715597309      110.8128269080
H               181.6802788967       67.5131580820      108.1614497882
H               181.0258529675       68.3372569676      109.5835068076
H               182.2519455195       71.0585913692      107.6415466207
H               180.9114436626       69.9508900765      107.7688513086
N               181.3956979697       66.1888164629      111.6691998258
C               180.6698493723       65.1473608382      112.3646186241
C               179.2408924480       65.6091336142      112.6654974290
O               178.8537050039       66.7264568252      112.3583410111
C               181.4060044523       64.6916020183      113.6555313225
O               181.1059671245       65.4882578711      114.7824977847
C               182.9073073788       64.5679036985      113.4113491428
H               181.2204528613       67.1349155877      111.9771200361
H               180.6050629993       64.2884441028      111.6876983553
H               181.0082309872       63.7042964859      113.8955571511
H               181.5100397965       66.3583191562      114.6662702210
H               183.3857375039       64.1393112917      114.2856076648
H               183.0759932394       63.9129926434      112.5622776255
H               183.3736312220       65.5233089720      113.1801548002
N               178.5162156241       64.7054254112      113.3587921848
C               177.1074011429       64.8692696773      113.6401144263
C               176.7206517529       64.7655702245      115.1236362505
O               175.5429002377       64.8231751318      115.4431866334
C               176.2846420032       63.7693651884      112.9446266734
O               176.8479434746       62.5442169176      113.3741291328
C               176.2800928803       63.9110108720      111.4316554237
H               178.8172821092       63.7380473113      113.3022506706
H               176.7837159954       65.8633109818      113.3127008614
H               175.2537048933       63.8600160446      113.3225317644
H               176.3679254867       61.8224517147      112.9472119432
H               175.6571511004       63.1406395388      110.9869940292
H               175.8735632061       64.8834939202      111.1677896686
H               177.2865654044       63.8364438210      111.0273565391
N               177.7157881388       64.4830765894      115.9737928706
C               177.5676994068       64.4874616010      117.4275928829
C               176.0901984468       64.2350500073      117.8108627734
O               175.3614664720       65.1075013516      118.2624288834
C               178.0740667907       65.8099068232      118.0170928371
C               178.4918497052       65.6936082527      119.4837564098
C               179.7259833165       64.8292204651      119.7618663609
C               181.0417081110       65.3532766200      119.1825110068
N               181.3631437622       64.7649901684      117.8492320686
H               178.6559500251       64.6067096215      115.6136424099
H               178.1491038771       63.6392524242      117.8078078979
H               178.8872678727       66.1964820214      117.4012039663
H               177.2570442357       66.5328047587      117.9383930390
H               178.6628692703       66.7019562278      119.8622119441
H               177.6449951407       65.2843692800      120.0376113140
H               179.8291156186       64.7884645912      120.8453977799
H               179.5493684898       63.8120682744      119.4183999493
H               181.0090848708       66.4397646466      119.1031690444
H               181.8550692106       65.0749965198      119.8526330413
H               182.3312501610       64.9960155389      117.5921623472
H               181.2553585409       63.7199730204      117.8834263215
H               180.7565198429       65.1223061971      117.0970346752
N               175.7107823894       62.9551812701      117.6713285732
C               174.3995467530       62.4748305966      118.0469662542
C               174.4801796817       61.8897182044      119.4625578274
O               175.5289495873       61.8777004813      120.0844917581
C               173.8379049770       61.5053969608      116.9955078516
C               174.6112010384       60.2270109532      116.8427853868
C               174.2178455660       59.0801636221      117.5233628804
C               175.6907265646       60.1439196994      115.9709904618
C               174.8570146050       57.8752126696      117.3135762650
C               176.3433143500       58.9426257940      115.7579678848
C               175.9130623993       57.7947284036      116.4110180392
O               176.4839666307       56.5809353619      116.1958841883
H               176.3815414167       62.2394078940      117.4336466002
H               173.7356420037       63.3445273182      118.0910606808
H               172.8040222176       61.2829326008      117.2630856227
H               173.8187972648       62.0523435142      116.0503468398
H               173.3807257151       59.1251023826      118.2048055065
H               176.0000794627       61.0251190539      115.4261568260
H               174.5175418658       56.9832170781      117.8158556067
H               177.1682898844       58.8909143223      115.0616405971
H               177.1947012813       56.6553204768      115.5448316220
N               173.3294972232       61.3988309001      119.9492243061
C               173.2061113732       61.0292312033      121.3426395482
C               172.6702321108       59.5932753492      121.4565703063
O               171.4998431415       59.3439902162      121.6934974171
C               172.3156700598       62.0443398392      122.0850310286
O               172.9188855778       63.3113821912      121.8905455911
C               172.2132415195       61.6925898261      123.5676134800
H               172.4567074260       61.4631712913      119.4389409156
H               174.2196940747       61.0858281166      121.7569055704
H               171.3175370674       62.0394830896      121.6189561114
H               172.3897591709       63.9751488899      122.3487660754
H               171.6257920063       62.4456774232      124.0855515533
H               171.7344868502       60.7260677129      123.6769322063
H               173.2097286109       61.6642487251      123.9998638148
N               173.6457977035       58.6755499337      121.3454890555
C               173.4827168188       57.2321969944      121.4084181842
C               172.7952190383       56.6343490749      120.1774228118
O               171.9609462729       57.2361788999      119.5244024716
C               172.6660169058       56.8015430906      122.6368488228
H               174.5531322230       59.0180763039      121.0601684749
H               174.4780599414       56.7884614864      121.4840098868
H               172.5095438481       55.7263894679      122.5925221598
H               173.2195829330       57.0688786985      123.5315255790
H               171.7018294173       57.3018775227      122.6204987698
N               173.1992920243       55.3684111675      119.9171949557
C               172.3568938219       54.4178342842      119.2002228637
C               171.9130195685       53.3829243368      120.2325465702
O               171.2638354201       53.7697482583      121.2097866136
C               172.9360277723       53.8512601653      117.9195500411
C               171.7898608184       53.1377381649      117.1051794412
O               170.7238287157       52.9154267807      117.7185831460
O               172.0453412274       52.8926782518      115.9130289004
H               173.8908048043       54.9641327675      120.5361281988
H               171.4454237002       54.9575852802      118.9175812110
H               173.3205930806       54.6483011285      117.2829367969
H               173.7194675687       53.1106073256      118.0724743595
N               177.1150026424       56.7061727238      123.7463478720
C               177.1680811230       57.7217566924      122.7184389703
C               178.3207234226       57.4406977267      121.7427911026
O               179.3003972256       56.7955442515      122.0783393391
C               177.2641422772       59.1459810964      123.2858018893
O               176.7239890754       59.9915967063      122.2947818039
H               177.8472414984       56.7275503640      124.4413047501
H               176.2279028551       57.6636726901      122.1632959516
H               176.6741926259       59.2065917648      124.2098193432
H               178.3071555724       59.3965883533      123.5099368521
H               176.9665674916       60.9091597128      122.4648680666
N               178.1220240987       57.9469864088      120.5211748072
C               179.0268696165       57.7494678599      119.4120640374
C               178.9971731943       58.9995315032      118.5333271986
O               178.1425843602       59.8626364302      118.6281875063
C               178.6014480359       56.5355887828      118.5652060063
C               178.8299256556       55.1887337058      119.2697581006
C               177.5235355440       54.4525681660      119.5777860983
C               177.8380360037       53.0373549321      120.0448891536
N               176.5920365747       52.2574666750      120.2796482894
H               177.3606637347       58.5931001543      120.3484763559
H               180.0328331986       57.5847534385      119.8138827643
H               177.5453820095       56.6478338363      118.3213446119
H               179.1593575650       56.5520898095      117.6293801212
H               179.4394752588       54.5532314174      118.6282118663
H               179.3767031995       55.3392069032      120.1995585476
H               176.9703751871       54.9825554598      120.3546424606
H               176.9064441295       54.4175499233      118.6769906021
H               178.4256577672       52.5229142932      119.2839933125
H               178.4016423772       53.0738865849      120.9786795309
H               176.0435187477       52.6387775991      121.0780782658
H               175.9931416342       52.2664773596      119.4447276988
H               176.8114332948       51.2781761847      120.4995777317
N               180.0181107889       59.0673916243      117.6612694421
C               180.1557786328       60.1035720349      116.6582685486
C               180.3996508433       59.4161050312      115.3087073560
O               180.9974638682       58.3540549232      115.2507009516
C               181.3375306746       61.0277336046      117.0639251307
O               180.8795012600       62.0124977680      117.9719464705
C               181.9816129516       61.7407110062      115.8857788579
H               180.6545948200       58.2884303198      117.5463529523
H               179.2274308946       60.6837967901      116.6368587789
H               182.0927922170       60.3995904816      117.5540436639
H               180.4846381995       61.5868211091      118.7437123666
H               182.7998992461       62.3590164443      116.2411047550
H               182.3851850949       61.0153340405      115.1861487470
H               181.2552806278       62.3604094810      115.3701841199
N               179.8901424528       60.0468455871      114.2436700940
C               180.1010426284       59.5995175425      112.8805183479
C               180.4437344432       60.8267175475      112.0190671624
O               180.3311009436       61.9623936855      112.4582623389
C               178.8650334122       58.8561685319      112.3701882627
H               179.4158649183       60.9362482627      114.3279950071
H               180.9635560828       58.9236785422      112.8905625245
H               178.9380039597       58.6362643665      111.3106181254
H               178.7590072617       57.9150894596      112.9012749361
H               177.9778603133       59.4612729925      112.5318855636
N               180.9334633859       60.5198224369      110.8117774832
C               181.4507949968       61.4768029902      109.8621602064
C               180.3694902462       61.8703380291      108.8473510697
O               179.4265562865       61.1380559400      108.5902044379
C               182.6353856573       60.8613328598      109.1041450562
C               183.7269747582       60.2660455131      110.0055870571
C               184.8404906308       59.6835312854      109.1348887186
C               184.2926237130       61.3010231820      110.9731038658
H               180.8943985120       59.5605452755      110.5021955907
H               181.7489986642       62.3717581661      110.4144186039
H               182.2460416674       60.0709056886      108.4588670635
H               183.0669340848       61.6383344570      108.4747091693
H               183.2930781279       59.4551954509      110.5991702083
H               185.5832085003       59.1858391245      109.7548182521
H               184.4383279388       58.9549847987      108.4365864082
H               185.3327152203       60.4739691394      108.5748026977
H               185.1132262028       60.8702666727      111.5422452147
H               184.6598527630       62.1728249330      110.4375427575
H               183.5365172887       61.6281435886      111.6832983150
N               180.6210985632       63.0237305478      108.2071693154
C               179.6389464145       63.6441003304      107.3357989311
C               180.0800496696       63.4739947204      105.8721115427
O               181.0443424230       64.0709003561      105.4115729427
C               179.5140795589       65.1364197220      107.6316134414
C               179.1359272338       65.4284906776      109.0727425375
O               178.9813967858       64.5531398567      109.9124189910
N               178.9938320762       66.7307491015      109.3487292835
H               181.3239026165       63.6399293323      108.5952733289
H               178.6854283485       63.1298225463      107.5027024566
H               180.4635280663       65.6282227795      107.4070747238
H               178.7616765137       65.5820039014      106.9802311584
H               178.7446481507       66.9993554898      110.2912994032
H               179.0108489313       67.4385766602      108.6186329350
N               174.9198815070       66.9686840099      103.7875589274
C               175.7213065559       66.1045993935      104.6360177850
C               174.8175878504       64.9458904480      105.0796684564
O               173.7422803576       65.1682190224      105.6392047402
C               176.2693596863       66.8578421572      105.8443164780
C               177.4055560978       67.8127464309      105.4879075927
C               177.7517150065       68.6789515834      106.7288882411
O               176.8538744660       69.3841546662      107.2019742144
O               178.9290183047       68.5942890355      107.1817252255
H               174.4127251726       67.7148785590      104.2374049591
H               176.5430406959       65.7045966183      104.0351675591
H               175.4704375659       67.4322870679      106.3190772799
H               176.6279106011       66.1288765179      106.5772082737
H               178.2900797178       67.2638829732      105.1614586123
H               177.0871292302       68.4878040815      104.6913298614
N               175.2456604851       63.7337048392      104.7569082409
C               174.5566222546       62.5274221552      105.1518050345
C               175.4795842562       61.7576749284      106.0949952302
O               176.6871272177       61.9549402096      106.1285743369
C               174.1341131058       61.6705929018      103.9349751378
C               173.2529151855       62.4925378629      102.9964672194
C               175.3515460861       61.1296456044      103.1911400848
H               176.1650232912       63.6256135873      104.3325660201
H               173.6627997604       62.8423666826      105.7033441987
H               173.5537658482       60.8291168313      104.3289788045
H               172.8880746656       61.8676064647      102.1868833991
H               172.3989480227       62.9066745385      103.5277473789
H               173.8190567056       63.3210727065      102.5731548435
H               175.0324406841       60.5373262646      102.3392895303
H               175.9662681563       61.9502492410      102.8286189581
H               175.9427965714       60.5072023087      103.8565356082
N               174.8783208070       60.8370151425      106.8587104528
C               175.6391410872       60.1429878752      107.8771293636
C               175.1555980898       58.7078237355      108.0354604501
O               173.9702973639       58.4231739153      108.1132831477
C               175.5697847000       60.8937705183      109.2299483979
C               174.1549151901       60.9169242973      109.8026049674
C               176.5695940358       60.2885769851      110.2085032383
H               173.8664045105       60.7699372389      106.8704650360
H               176.6839622134       60.1613425432      107.5484513976
H               175.8829624495       61.9224443041      109.0124624893
H               174.1285547633       61.4949044725      110.7242118874
H               173.4675795260       61.3746368963      109.0943435538
H               173.8167141051       59.9075090955      110.0215886555
H               176.5634520123       60.8584989140      111.1327677340
H               176.3257773415       59.2529906880      110.4333093925
H               177.5710655108       60.3473965591      109.7893160459
N               176.1361238525       57.7921134812      108.0996699851
C               175.8802698111       56.3908454478      108.3536901109
C               175.9592534064       56.1016194114      109.8633649404
O               176.9742441695       56.3398809931      110.5023350126
C               176.9250918655       55.5212636467      107.6480941641
O               176.5856995692       54.1728395728      107.8696017243
H               177.0950592413       58.1002212156      108.1638335778
H               174.8800835563       56.1485341801      107.9866362661
H               176.9279888733       55.7582813573      106.5758011835
H               177.9125461600       55.7476675892      108.0754610577
H               177.2433522376       53.6089476702      107.4432053495
N               174.8393495129       55.5954064855      110.3789962995
C               174.7161663919       55.1584543651      111.7560913931
C               174.0764865387       53.7692892240      111.6973688472
O               172.9913556121       53.5870335305      111.1625825538
C               173.8510674239       56.1248168921      112.5960621674
C               174.4355698519       57.5405019682      112.5215561944
C               173.7531841101       55.6215470517      114.0337611997
C               173.6462986601       58.5734989186      113.3196076828
H               174.0324798043       55.4451865253      109.7815733777
H               175.7273217712       55.1182412946      112.1717785068
H               172.8538792884       56.1351593221      112.1470593621
H               175.4679876380       57.5230697229      112.8745980621
H               174.4544562757       57.8463031323      111.4725709830
H               173.0943588900       56.2640883313      114.6118217258
H               173.3442046671       54.6142039849      114.0770742131
H               174.7305125145       55.6224540271      114.5080556788
H               174.0021090527       59.5742080263      113.0838912102
H               172.5871681151       58.5233756296      113.0814094895
H               173.7589022915       58.4251026458      114.3896013426
N               174.7879267524       52.7713564799      112.2370974101
C               174.3301317366       51.3967153111      112.1617012723
C               174.3158561998       50.9656040055      110.6881524328
O               175.3480327347       50.7626613188      110.0706725452
H               175.7106817647       52.9502778255      112.5935085526
H               175.0283028637       50.7688868382      112.7129516712
H               173.3362864675       51.3276128486      112.6119936231
N               173.0931333323       50.8542766374      110.1476502921
C               172.8816453836       50.5267597219      108.7589217457
C               172.0379325884       51.5203863295      107.9624830616
O               171.5589486186       51.1930606485      106.8851411523
H               172.2927273542       51.0955220877      110.7132451711
H               173.8672219281       50.4640541804      108.2863839863
H               172.4049008182       49.5451067251      108.6631613438
N               171.8216618013       52.7094489905      108.5366671354
C               171.0010651660       53.7237333832      107.9130018690
C               171.7863053309       55.0088028953      107.6585006099
O               172.7880888440       55.2956687939      108.3059216613
C               169.7892528237       54.0388565826      108.8020167472
C               168.7661265757       52.9061799720      108.7838672379
C               167.4947877219       53.3082783294      109.5325064073
C               166.4572837617       52.1957608284      109.5753386698
N               166.8775002789       51.1077874428      110.5069948920
H               172.3250378686       52.9664997665      109.3790318809
H               170.6662745001       53.3297142450      106.9469637054
H               170.1472874534       54.2139905888      109.8175735454
H               169.3203938005       54.9557188192      108.4439961017
H               168.5191577385       52.6797360174      107.7432696998
H               169.2337798213       52.0209515732      109.2170765494
H               167.7369670319       53.6517338890      110.5383162610
H               167.0510346077       54.1596412902      109.0156158426
H               165.5042677267       52.6036214073      109.9112232869
H               166.3331077832       51.7794949165      108.5752290703
H               166.1558051152       50.3742921991      110.5558014079
H               167.7583235327       50.6909837199      110.1713364151
H               167.0311688990       51.4990112044      111.4496027192
N               171.2441721938       55.7940689185      106.7213933261
C               171.8559463291       57.0414816590      106.3209341051
C               170.8532208906       58.1932120303      106.4486163790
O               169.8422229302       58.3025395982      105.7621660466
C               172.4845937521       56.9544357877      104.9142961301
O               173.2331757762       58.1436221496      104.7475025285
C               171.4791120469       56.7543310571      103.7865609736
H               170.5011805613       55.4048485192      106.1217430736
H               172.6781210803       57.2313175346      107.0184204713
H               173.1674253412       56.0854351070      104.9358730071
H               173.6315425187       58.1281409976      103.8674974079
H               171.9996624793       56.6145076172      102.8416060320
H               170.8699554612       55.8748096271      103.9772509633
H               170.8241946236       57.6176142159      103.7105621271
N               171.1570883384       59.0611976624      107.4187076649
C               170.3006839341       60.1736058276      107.7680272160
C               170.8962687985       61.4850269171      107.2457456972
O               172.0760206685       61.5832443057      106.9461801181
C               170.1665105897       60.2681731380      109.3014553986
C               169.7151167555       58.9710703412      109.9181696494
C               168.4642519166       58.4332649542      109.6354734125
C               170.5366060586       58.3015510574      110.8136073970
C               168.0451366112       57.2568985160      110.2264236039
C               170.1115697187       57.1461552081      111.4396386331
C               168.8619907248       56.6140144022      111.1518076658
O               168.4166153504       55.4796807373      111.7551787216
H               172.0594206621       58.9906852640      107.8771488708
H               169.3262201707       59.9852879066      107.3048516221
H               171.1393630007       60.5398958649      109.7154301615
H               169.4479595009       61.0516452735      109.5486225456
H               167.7842585517       58.9403193103      108.9674533624
H               171.5161491605       58.6946130054      111.0392018469
H               167.0747729938       56.8435875092      109.9928529602
H               170.7415885741       56.6560219761      112.1674745931
H               169.0283633759       55.2259799129      112.4612127802
N               170.0431752042       62.5240023006      107.1557227190
C               170.5504111061       63.8747333287      106.9601453091
C               171.2205563708       64.3337972635      108.2583492827
O               170.6792358004       64.1509731080      109.3458852062
C               169.4066241460       64.8231085610      106.6184872830
H               169.1380239764       62.4506705447      107.5979201074
H               171.2962740131       63.8456239846      106.1613749283
H               169.8134439998       65.7927133549      106.3497363897
H               168.8451451354       64.4313439210      105.7757622693
H               168.7528298137       64.9381864651      107.4795587303
N               172.3776309934       64.9893231221      108.1309503787
C               173.1336709850       65.3816818733      109.3057926422
C               172.2404368109       66.0671605144      110.3377132776
O               172.3159491254       65.7996647532      111.5332009118
C               174.2658063833       66.3271255231      108.9231416479
H               172.8483876388       65.0627238959      107.2291325456
H               173.5532925944       64.4922214306      109.7977984679
H               174.7748588332       66.6918266869      109.8130119242
H               174.9909766893       65.8050537223      108.3054180507
H               173.8936274619       67.1855536507      108.3708902021
N               171.4048838999       66.9899631787      109.8552099201
C               170.5920133281       67.8205998966      110.7173673327
C               169.6007294290       67.0132378952      111.5748660166
O               169.2199443603       67.4548872709      112.6489156044
C               169.8085975182       68.8215507529      109.8625496552
O               168.9910884590       68.1060836451      108.9728747885
H               171.3815593808       67.1771141471      108.8629389004
H               171.2344576990       68.3648177334      111.4222982662
H               169.2168738121       69.4483314483      110.5410475843
H               170.5251444436       69.4586573729      109.3267442948
H               168.5252462374       68.7345193800      108.4032598307
N               169.1263498089       65.8961019712      111.0117963225
C               168.2309999514       65.0004238248      111.7089949233
C               168.9340618634       64.0546334420      112.6951533617
O               168.2811689742       63.4013125500      113.4931103495
C               167.4394246998       64.1691575848      110.6908652281
C               166.3827053204       64.9688434892      109.9212330774
C               165.2151068092       65.3812162483      110.8270961825
C               163.9091935865       65.6685860663      110.0889684129
N               164.0003079671       66.9036845142      109.2532853531
H               169.6044435476       65.4999784982      110.2083573987
H               167.5664649036       65.6105668195      112.3296063077
H               168.1700434952       63.7385413527      110.0030400326
H               166.9665168018       63.3511729167      111.2363385305
H               166.8711197918       65.8384363555      109.4807649383
H               166.0090590291       64.3227074193      109.1261175496
H               165.0182222680       64.5639895413      111.5217058745
H               165.5010313907       66.2410397764      111.4333411663
H               163.6438610818       64.8262462021      109.4504916018
H               163.1184213127       65.8105347813      110.8251719076
H               163.0565357538       67.2913082879      109.0320575221
H               164.5291395546       67.6121920270      109.7806581406
H               164.5015743102       66.7080401912      108.3757735935
N               170.2679671636       63.9617848388      112.5738762840
C               171.0887628466       63.2094858110      113.4888605627
C               171.6402228156       64.0543629095      114.6464081854
O               171.8157468423       63.5333867829      115.7448311379
C               172.2633877898       62.5787540718      112.7452990481
H               170.7642419019       64.5601413952      111.9294730671
H               170.4538923926       62.4378139649      113.9412453686
H               172.8629323294       61.9950699477      113.4387055940
H               171.8982004838       61.9359369696      111.9488911731
H               172.8768626519       63.3709602521      112.3192339982
N               171.9173581218       65.3281151248      114.3788645383
C               172.4556273506       66.2494749429      115.3640891555
C               171.7500246267       66.0404927972      116.7040457208
O               170.5545968620       66.2685194398      116.8369527321
C               172.2116675413       67.6940355498      114.9123648980
C               173.3893156497       68.2366591766      114.1192198094
C               174.6463646254       68.3946866275      115.0403461915
O               174.4564399276       68.8933808577      116.1664854718
O               175.7391936133       68.0290932605      114.5617206411
H               171.9037138972       65.6632539575      113.4241955283
H               173.5331312243       66.0781268851      115.4906145064
H               171.2784814600       67.7377307261      114.3444365189
H               172.0948436156       68.3235850961      115.7982946705
H               173.6539488020       67.5863271952      113.2829790260
H               173.1561322343       69.2332094542      113.7349089016
N               172.5313137433       65.6104916249      117.7042463943
C               172.0434657307       65.4696773744      119.0560337661
C               170.8110357827       64.5809357481      119.2090091855
O               170.1706371011       64.5943341366      120.2551539852
H               173.5352724610       65.5386088046      117.5785653879
H               172.8449412952       65.0491498306      119.6685624904
H               171.7725492386       66.4468403050      119.4742081105
N               170.4995011851       63.7878729562      118.1844857004
C               169.2957956052       62.9892017843      118.2283850938
C               169.5486126708       61.7765362893      119.1179208721
O               170.6035635901       61.1567899468      119.0896890842
C               168.8723589893       62.4948744311      116.8410045443
C               167.5964998011       61.7290578330      116.9548288837
N               166.3910142843       62.3474735238      117.1303577748
C               167.4170671033       60.3718539443      116.9901888059
C               165.5125621711       61.3876465243      117.2543600727
N               166.0812135114       60.1659107856      117.1775670982
H               171.0652058284       63.7467271660      117.3439283094
H               168.4980610259       63.6037439713      118.6609641873
H               168.7347706414       63.3511069937      116.1805861697
H               169.6528267014       61.8479104089      116.4373012423
H               168.1110462320       59.5655445217      116.8884602386
H               164.4668209420       61.5430777418      117.4241165023
H               165.6304105793       59.2624174161      117.2658133662
N               168.6816693427       58.3156386131      119.6551248160
C               168.1818151434       57.1230313541      119.0099762255
C               167.8069989055       56.0197464090      120.0092386755
O               167.2854007563       54.9852259398      119.6134903606
C               169.2242061178       56.5542007032      118.0404710940
C               169.3744880312       57.3520511325      116.7788108946
C               170.4021446082       58.2804009665      116.6540792653
C               168.4975591294       57.1697580057      115.7150940803
C               170.5490457711       59.0203887186      115.4931535843
C               168.6498864090       57.9050258447      114.5528278327
C               169.6700065685       58.8357551623      114.4399184954
H               169.6763756101       58.4886297757      119.5934142357
H               167.2549305716       57.3627750756      118.4667478445
H               170.1800213488       56.5338949912      118.5652501921
H               168.9375115777       55.5268423183      117.7971604815
H               171.0929870855       58.4167326285      117.4727205841
H               167.6933718526       56.4495553378      115.7981567622
H               171.3534035298       59.7374471731      115.4180064154
H               167.9632902366       57.7419343895      113.7363229510
H               169.7730284081       59.4110896819      113.5328817807
H               188.1254361276       66.0632898515      108.9077203547
H               172.1490813183       52.4192209302      120.1078445476
H               176.3425851632       56.7802735847      124.2022867936
H               179.5741067371       62.8608029811      105.2654669680
H               175.4502840904       67.3704765856      103.1815590712
H               168.8400333368       61.4641278996      119.7506264320
H               168.2876996526       59.0399568160      119.2943603162
H               167.9888188941       56.1456161487      120.9844813635
