 62 
 
N                29.3828660989       27.9745696029       18.5151299184
C                28.9459096000       29.1911824037       17.8801751294
C                27.4396723909       29.4755243314       17.9173402679
O                27.0193545086       30.5352377747       17.4608296251
C                29.4213176895       29.2102922500       16.4175315803
O                28.7435379817       28.2990797397       15.5858534954
H                29.2915705753       27.1142239438       17.9836770775
H                29.4171814435       30.0280290174       18.4124709504
H                29.2255726399       30.2045545404       16.0109178649
H                30.4998720736       29.0075310329       16.4062498094
H                28.6997859349       27.4144461391       16.0081862052
N                26.6304731745       28.5197529814       18.3762413594
C                25.2038378280       28.7899527688       18.4031485086
C                24.9083240631       29.8693590231       19.4480672830
O                25.4357276004       29.8616120225       20.5555623885
C                24.3889174803       27.5077115496       18.6512438799
C                24.4337849935       27.0458344096       20.1027289278
C                22.9368799903       27.7215245001       18.2290635491
H                26.9735868374       27.7122041588       18.8862168710
H                24.9462678882       29.1782953759       17.4132284948
H                24.8379370332       26.7342558566       18.0177288621
H                23.9190656084       26.0925421320       20.1952737169
H                25.4569883757       26.9306427408       20.4444025565
H                23.9347672801       27.7715326312       20.7391937485
H                22.3763399584       26.7977543518       18.3482702578
H                22.4787846882       28.4746872537       18.8661206109
H                22.8668041793       28.0337664656       17.1894953191
N                24.0309846786       30.8231025250       19.1043577151
C                23.5505706910       31.7381567671       20.1303576041
C                22.8864900783       30.9414070214       21.2546404910
O                22.3588551102       29.8589716627       21.0563797327
C                22.5286301163       32.6167032268       19.4005405298
C                23.0515212494       32.6228234279       17.9672095929
C                23.5465744283       31.1887378269       17.7833658049
H                24.3889793113       32.3182909139       20.5342769978
H                21.5489519254       32.1375656784       19.4403197052
H                22.4583687471       33.6096334669       19.8362701818
H                22.2883846721       32.8882372198       17.2403160498
H                23.8860255281       33.3178048555       17.8776945627
H                22.7264188546       30.5313830579       17.4794037786
H                24.3573218385       31.1311378400       17.0552464069
N                22.8915589814       31.5541991291       22.4476030929
C                22.2697376470       30.9932261911       23.6259467629
C                21.4429579893       32.0697017017       24.3318807763
O                21.6995959728       33.2609591413       24.2168017492
C                23.3457105973       30.5043130712       24.6110641348
C                24.2383477011       29.4027807653       24.0278844561
C                25.4434393504       29.1905968828       24.9379259178
C                23.4712247021       28.0956047235       23.8557836595
H                23.2444404626       32.4940399417       22.5534941319
H                21.6307675034       30.1690673761       23.2991944168
H                23.9550200434       31.3700320725       24.8819016897
H                22.8600478887       30.1515557116       25.5226335444
H                24.5936083549       29.7250940433       23.0437600845
H                26.1001569353       28.4418404834       24.5070624203
H                25.9935677733       30.1188444427       25.0644472327
H                25.1158661314       28.8492549916       25.9160184746
H                24.1307706894       27.3328381088       23.4515890704
H                23.0839881712       27.7429155649       24.8090105288
H                22.6456925455       28.2240509774       23.1624529811
H                30.2572425343       28.0390405159       18.7183769369
H                20.6678886594       31.8079036545       24.9069714789
