 318 
 
N               181.7482454878       67.3409936818       91.0896917612
C               183.1214730251       67.3954436374       90.6432191536
C               183.9616785308       67.9843560305       91.7734050862
O               183.4374329555       68.5188020991       92.7447231173
C               183.2179760416       68.2902383583       89.3879809163
O               182.8832074194       69.6242565044       89.6658898587
H               181.5116981890       68.0089116798       91.8143731839
H               183.4708980270       66.3860480441       90.4014953220
H               184.2386036748       68.2946394123       88.9995589100
H               182.5430455561       67.8705057824       88.6304484758
H               182.0793721463       69.6360106673       90.2169805262
N               185.2813037441       67.9426709095       91.5825934115
C               186.2119248380       68.3241732320       92.6166057820
C               187.5717491336       68.6163529336       91.9838719777
O               187.9231217510       68.1143641642       90.9272803048
C               186.3563434871       67.1999644255       93.6532977720
C               186.8712252617       65.9142652177       92.9906344603
O               188.0834493761       65.6294633256       93.1767810418
O               186.0822535084       65.2111130686       92.3381773040
H               185.6750523938       67.3933566444       90.8313273697
H               185.8272421112       69.2241240263       93.1086162282
H               187.0506082791       67.5039693015       94.4310722834
H               185.3761587650       67.0039201759       94.0921465433
N               188.3044841040       69.4673997282       92.7116843143
C               189.6059394455       69.9683335385       92.3263395496
C               190.5794929826       69.7863817266       93.4900289331
O               190.2856714495       70.1395203714       94.6247435020
C               189.5058548293       71.4797179449       91.9570544016
O               188.9199263895       72.2408930596       92.9785805884
C               188.7531775762       71.6385191434       90.6347405872
H               187.9058556821       69.8494024583       93.5642169638
H               189.9278948889       69.4030120050       91.4492482852
H               190.5258846850       71.8690939152       91.8540678074
H               188.0869898157       71.8252478382       93.2679553720
H               188.6922117931       72.6919538161       90.3806772550
H               189.2750879310       71.1171078116       89.8379164601
H               187.7508668492       71.2244564231       90.7189522370
N               191.7474136143       69.2088324033       93.1969798130
C               192.7792347988       69.0390871431       94.2114471040
C               193.0584262662       70.4069630628       94.8573986607
O               193.2807403636       71.3941131293       94.1718506273
C               194.0554079555       68.5029848424       93.5780645690
H               191.9974011818       69.0031856920       92.2420394154
H               192.4127518029       68.3490230111       94.9798993891
H               194.7933597266       68.3124389984       94.3521921899
H               193.8568253509       67.5728733603       93.0522679763
H               194.4598843078       69.2367231834       92.8842752887
N               193.0666538024       70.4006720087       96.1944885983
C               193.2449630061       71.6102781783       96.9768619577
C               194.4286895765       71.3933343313       97.9264948930
O               194.3076473285       70.8179513791       99.0024878325
C               191.9780975743       71.9334816784       97.7630275030
H               192.8307429325       69.5530917953       96.7081311121
H               193.4727561520       72.4086719343       96.2634719259
H               192.0897698485       72.8870466806       98.2701765797
H               191.1306765975       71.9724399028       97.0850269770
H               191.8093965904       71.1596216495       98.5077411282
N               195.5974276190       71.8552062700       97.4741543077
C               196.8701506524       71.6810866663       98.1435952752
C               197.0599671903       72.7082895598       99.2823675082
O               197.9591325783       73.5344372906       99.2978167113
C               197.9958986034       71.7801531359       97.0980564217
O               197.6486425778       72.8255721889       96.2115147343
C               198.1757023726       70.4563040675       96.3550056276
H               195.6644866814       72.3765742427       96.6089624242
H               196.8861822403       70.6922462099       98.6183536690
H               198.9188528989       72.0348429745       97.6379653929
H               198.3963505473       73.0075738685       95.6305410465
H               198.9647685165       70.5466950081       95.6129403172
H               198.4473850362       69.6718127434       97.0547152919
H               197.2509824992       70.1839672244       95.8519033103
N               196.1372846833       72.5906998670      100.2414241486
C               196.2356565487       73.3333303061      101.4845468425
C               197.6731262551       73.1746922616      102.0005738549
O               198.2299996872       72.0847460096      102.0156362406
C               195.2423127144       72.7836175369      102.5216955110
C               195.3419861856       73.5658130127      103.8307926173
C               193.8084180962       72.8415248183      101.9974747629
H               195.4797257477       71.8186573173      100.1885863557
H               196.0314419085       74.3929874344      101.2885844900
H               195.5233952297       71.7412021990      102.7103697738
H               194.7566863282       73.0718914926      104.6021205757
H               196.3667215603       73.6294544903      104.1878298160
H               194.9553948327       74.5750380669      103.7087055673
H               193.1334566236       72.4800141923      102.7684565897
H               193.5397031009       73.8685038689      101.7642606520
H               193.6733308298       72.2305223754      101.1085717167
N               197.4704719281       64.8900558261      106.6265673580
C               196.0909315062       64.5841080630      106.9589019343
C               195.9471139993       63.7389393385      108.2210330435
O               194.9167779309       63.1087587506      108.4326173486
C               195.3308330257       63.8904879947      105.8151174610
C               195.3340102979       64.6618522067      104.4938691959
C               194.4202883303       63.9522295498      103.4939533666
C               194.8574477316       66.0961573778      104.6922761004
H               197.6885863159       65.8779041383      106.5451723920
H               195.6102729826       65.5431173001      107.1799803327
H               195.7739457253       62.9082238120      105.6674642250
H               194.3023615868       63.7593040760      106.1530352332
H               196.3501671081       64.6863066851      104.0900637931
H               194.4095593243       64.4958770058      102.5540104335
H               194.7607469641       62.9420708672      103.2875761243
H               193.4031431472       63.9079223979      103.8755525068
H               194.7797360537       66.5896704258      103.7307165117
H               193.8815078425       66.1039507412      105.1705388109
H               195.5529529892       66.6715365043      105.2978975995
N               192.5432554254       62.4529048788      100.2232599572
C               193.0338288230       63.6287637941       99.5322919291
C               192.1180113883       64.8082325269       99.8836896220
O               191.0252649199       64.6074163245      100.3996903491
C               193.0184931080       63.3753339326       98.0025828602
O               191.7353603303       63.0911524465       97.5149938830
H               191.5335515584       62.3630411940      100.2461496472
H               194.0647025380       63.8142947003       99.8463134794
H               193.3539921059       64.2666874326       97.4680880348
H               193.7078302241       62.5472429930       97.7935894311
H               191.4017067958       62.2773687449       97.9282657670
N               192.5813783310       66.0326649335       99.6099194083
C               191.7992161946       67.2287635233       99.8565488422
C               191.4072268475       67.8757924338       98.5313887024
O               192.2358944932       68.0486645744       97.6397244807
C               192.5723087843       68.2835641305      100.6751789749
C               191.6074430556       69.3756929473      101.1289806600
C               193.2490830710       67.6310525491      101.8738132225
H               193.4613448333       66.1561976562       99.1322587719
H               190.9075001421       66.9123920227      100.4048554810
H               193.3359261327       68.7355221430      100.0326487102
H               192.1468993302       70.1285218112      101.6955720001
H               191.1395555733       69.8594914088      100.2756403862
H               190.8239726286       68.9561473936      101.7555825756
H               193.7297152404       68.3911636365      102.4831780413
H               192.5164364582       67.1008552769      102.4784233969
H               194.0034946749       66.9195657336      101.5482053872
N               190.1400927899       68.2808128815       98.4639455843
C               189.5835865808       68.8953419388       97.2857852047
C               188.6210409368       70.0225404619       97.6504893118
O               188.0223726128       70.0698641283       98.7164477794
C               188.8261459615       67.8668041474       96.4115727292
C               189.7682147285       66.7747892255       95.9152330318
C               187.6437149174       67.2617212132       97.1618631054
H               189.4912084458       68.0562001816       99.2107454606
H               190.4096927858       69.3024830978       96.6965749695
H               188.4615089347       68.4242489811       95.5424918547
H               189.2894861578       66.2095170101       95.1206651974
H               190.6770502382       67.2124714029       95.5135726860
H               190.0396070970       66.0972778933       96.7208344231
H               187.1435767221       66.5215750220       96.5426983734
H               187.9802577452       66.7805291526       98.0771258523
H               186.9135159044       68.0257072884       97.4180824925
N               188.4846380209       70.9319672402       96.6799574059
C               187.4714137725       71.9687978537       96.6388108916
C               186.4192407207       71.4672077211       95.6487118535
O               186.7247427587       71.0832562682       94.5169817892
C               188.1453367626       73.2884081665       96.2416619391
C               187.2471943210       74.5197430934       96.3558042177
C               186.2489533935       74.7026620166       95.2148092027
C               186.9146793506       75.0230782906       93.8832376564
N               185.8872555056       75.1743144023       92.8258212599
H               189.0051107258       70.7991025814       95.8206170141
H               187.0232279514       72.0442839585       97.6335889911
H               188.9858025723       73.4143670738       96.9263718258
H               188.5494114025       73.1872810526       95.2344819145
H               186.6844389790       74.4703425999       97.2892060413
H               187.8865574229       75.4015941037       96.4012905208
H               185.6413617654       73.8064242888       95.1048072053
H               185.5776423602       75.5162169251       95.4918426232
H               187.4756087715       75.9553755078       93.9525001333
H               187.5951292342       74.2177201062       93.6009218222
H               186.3319429593       75.2392526750       91.9070444460
H               185.2265430363       74.3836537372       92.8290342428
H               185.3114044942       76.0798228648       92.9391228889
N               185.1790698848       71.3929618612       96.1265077879
C               184.0859110709       70.8144296858       95.3731969966
C               183.5105120472       71.8297326018       94.3762048677
O               183.6157571343       73.0356211003       94.5603175734
C               182.9596597731       70.3841077431       96.3162613040
C               183.3975583214       69.3528029048       97.3502782926
S               184.1342325123       67.8428431996       96.6243700224
C               182.6944631907       67.2040553106       95.7267608105
H               184.9862159681       71.7536116782       97.0535524834
H               184.4668483261       69.9441732650       94.8266975514
H               182.5967248858       71.2686951046       96.8449245423
H               182.1456563898       69.9803432997       95.7122849829
H               184.1665679340       69.7542912994       98.0091585796
H               182.5433953607       69.0316916919       97.9457425832
H               182.8895596786       66.1543790329       95.5298928120
H               181.8102493874       67.3068916611       96.3470368934
H               182.5864256980       67.7354321389       94.7856614797
N               182.8442326261       71.3011113451       93.3490013725
C               182.0720815927       72.1073697034       92.4280045914
C               180.8399643871       71.3061664772       91.9956218686
O               180.9268964288       70.1143141231       91.7125824200
C               182.8624561024       72.4819950908       91.1628098960
O               183.9024761917       73.3796332317       91.4867206115
H               182.8932790977       70.3045289860       93.1496999554
H               181.7735231439       73.0235629916       92.9475690520
H               183.2687253217       71.5697007393       90.7106746709
H               182.1617493107       72.9510508861       90.4597341331
H               184.3208868924       73.6428388717       90.6564947568
N               185.7643225765       72.4986756747      101.3341390536
C               186.6650288164       71.3739805660      101.2653062925
C               185.9312417026       70.0657501105      101.5509200271
O               184.9776673840       69.9778101470      102.3184298066
C               187.7900037861       71.5146609051      102.2957577365
C               188.6212178490       72.7947018493      102.1415688007
C               189.6544562622       72.8576342803      103.2652102056
C               189.3185934919       72.8602389491      100.7858950758
H               185.5618213769       72.8457448134      102.2595460617
H               187.0675194655       71.3232517399      100.2512005349
H               187.3414318247       71.4962587435      103.2935211987
H               188.4489496210       70.6489295362      102.2029557109
H               187.9555321644       73.6578737264      102.2367956307
H               190.1949047030       73.8007270048      103.2392113694
H               189.1789583557       72.7560262482      104.2389550077
H               190.3749671019       72.0503878303      103.1558244970
H               189.9666157373       73.7315098033      100.7460716272
H               189.9274211118       71.9725647286      100.6339124295
H               188.5958364119       72.9281304836       99.9786543445
N               186.4549243089       69.0217645624      100.9054743565
C               186.0873579120       67.6632998084      101.1957169814
C               187.3590935993       66.8270905833      101.2279217215
O               188.3349843934       67.1039524318      100.5387222561
C               185.1304525458       67.0753737073      100.1528181530
H               187.2096850069       69.1543273528      100.2417808707
H               185.5916210753       67.6485676319      102.1700377704
H               184.8977731984       66.0481043309      100.4206393696
H               184.2106466407       67.6538011789      100.1444161470
H               185.5700179624       67.1001351617       99.1591846806
N               187.3070154639       65.7928161933      102.0686596736
C               188.2597009787       64.7056454543      101.9765495823
C               187.6745854011       63.7152829698      100.9650915316
O               186.5398929662       63.2589584101      101.0983322572
C               188.5394293555       64.0589451134      103.3356458976
C               189.5210558021       62.9076075202      103.1422383333
C               189.1359709550       65.0955214416      104.2811517772
H               186.4380826299       65.6344485862      102.5724151154
H               189.1876725479       65.1188551321      101.5746119739
H               187.5978273525       63.6774303049      103.7445511768
H               189.8046809322       62.4952072300      104.1066273399
H               189.0872050325       62.1139283966      102.5379723310
H               190.4093557140       63.2801782689      102.6368080355
H               189.2785202886       64.6641164155      105.2668807783
H               190.0983908183       65.4231075467      103.8978957414
H               188.4848035332       65.9596555709      104.3646550459
N               188.4545191417       63.4831343001       99.9126089197
C               188.0875699033       62.6239095150       98.8059536964
C               188.8088145310       61.2856097757       98.9854783457
O               190.0251888831       61.2319942689       99.1386324790
C               188.4884279441       63.2653430549       97.4791484152
C               188.0540924715       62.4261789578       96.2798649590
C               188.6336040051       63.0308616533       95.0057025720
C               188.0401037583       62.4197646271       93.7447263753
N               188.5651129615       63.1464073154       92.5649687096
H               189.4085262038       63.8378274559       99.9219070008
H               187.0076136939       62.4630303825       98.8377828581
H               188.0229053481       64.2490598391       97.4139022131
H               189.5708697079       63.3944983674       97.4551310030
H               188.3951341481       61.3946988362       96.3831941890
H               186.9636772958       62.3911702493       96.2243001130
H               188.4229901653       64.1006156687       95.0005319275
H               189.7160506418       62.9009227376       95.0164550238
H               188.2574052975       61.3521454861       93.6835254475
H               186.9546053677       62.5288190684       93.7588143714
H               188.0711526635       62.8694210830       91.7146016346
H               188.3961165317       64.2432892554       92.7429348833
H               189.5682264223       62.9794580592       92.4549749063
N               183.2433173897       61.5843899489       99.1959900883
C               183.6124564725       62.8948787694       99.6857221636
C               183.0020081524       63.1049503518      101.0747049038
O               181.8278669066       62.8246441308      101.2921768836
C               183.0454775781       63.9990974103       98.7661567964
C               183.4266770294       63.8088481109       97.3256468702
C               182.5947731760       63.0985353797       96.4668754241
C               184.6024536383       64.3410750180       96.8160991311
C               182.9065091444       62.9457136052       95.1323712521
C               184.9207670679       64.2028082747       95.4774409991
C               184.0697426887       63.5154693948       94.6167581633
O               184.3207972697       63.3735868450       93.2901655519
H               182.2560387356       61.3697987622       99.2053954904
H               184.7031149536       62.9311413786       99.7220169161
H               181.9572130312       63.9702315080       98.8562311867
H               183.4105390730       64.9618770829       99.1245317712
H               181.6755049524       62.6664355700       96.8353104793
H               185.2681640871       64.8889826032       97.4652831392
H               182.2678004356       62.3760808116       94.4758418715
H               185.8303531952       64.6340808440       95.0867655040
H               185.0041629193       64.0112796313       92.9769858788
N               193.1327379929       70.0628258534      109.0137787200
C               191.8737086093       69.7591478689      108.3654038640
C               191.2496828366       68.5462879443      109.0506790727
O               191.8427954081       67.4901257778      109.2267376355
C               192.0556897379       69.5602912135      106.8438098307
C               190.7105691429       69.1786123989      106.2171794615
C               193.1482072723       68.5399773703      106.5504954720
C               190.7413804209       69.2104313124      104.6938803158
H               193.7032457158       69.2844435113      109.3068769789
H               191.2224627813       70.6237300141      108.5287225489
H               192.3738316757       70.5301734396      106.4435338749
H               190.4301059349       68.1809520405      106.5623835772
H               189.9550309169       69.8792615955      106.5812207779
H               193.2422759044       68.3846196467      105.4816681242
H               194.1073905687       68.8961556887      106.9207420632
H               192.9225773749       67.5944802935      107.0370228832
H               189.7390965567       69.0768637133      104.2986904145
H               191.1281721811       70.1656662124      104.3505907077
H               191.3743951262       68.4202068276      104.3044874149
H               181.1998375102       67.5058205724       90.3953713840
H               198.1754780880       73.9723829988      102.3342385423
H               198.0132848311       64.5608674973      107.2645244071
H               196.6960714858       63.6963231241      108.8822792470
H               192.8599421504       61.7133706343       99.8197768481
H               179.9470793839       71.7530463363       91.9403519615
H               186.1134735798       73.1915367417      100.8780281912
H               188.2878112220       60.4320768103       98.9793931970
H               183.5094050608       61.4973900402       98.3406373148
H               183.5619766436       63.4743606661      101.8163054085
H               193.6509695947       70.5410763218      108.4545716955
H               190.3075741511       68.5895987106      109.3831777978
