 287 
 
N                21.5000081825       21.1701323682       53.5386764320
C                21.2517768041       20.1657827684       52.5283683837
C                22.0734263483       20.5378202151       51.2918297170
O                22.0986297418       21.6766559538       50.8481109893
C                19.7575739579       20.0161308857       52.1757225093
C                19.5655393262       18.7036304657       51.4197004053
C                18.9091439209       20.0407648381       53.4447141765
H                21.4061207749       22.1402917436       53.2611376742
H                21.6172520401       19.2215456820       52.9449728543
H                19.4660637738       20.8522374744       51.5323943816
H                18.5141438752       18.5459415983       51.2054656798
H                20.1154106399       18.7125076262       50.4823361390
H                19.9337355001       17.8709677389       52.0147557706
H                17.8633771057       19.8983837121       53.1896037542
H                19.2277556176       19.2492190436       54.1174002858
H                19.0173742260       20.9910971203       53.9619238565
N                21.7362951084       22.3192266910       44.4531894353
C                20.7631770668       22.7532133745       45.4284547062
C                21.4925395885       22.8673048735       46.7677015915
O                21.9817057409       21.8928544493       47.3251883839
C                19.6467864705       21.7001035938       45.5496874489
C                18.6345373751       22.1316964196       46.6042814890
C                18.9771520668       21.4435419873       44.2043193065
H                22.1629928674       21.4182389955       44.6628516966
H                20.3653379117       23.7243943687       45.1189239064
H                20.1364537575       20.7816242109       45.8864702176
H                17.8188517768       21.4154633368       46.6589162817
H                19.1073915344       22.1888986645       47.5818994803
H                18.2256738425       23.1109163171       46.3684205381
H                18.2494137739       20.6442423778       44.3082363349
H                18.4660127158       22.3405268025       43.8646343701
H                19.7148084448       21.1547020326       43.4600293482
N                20.8169999213       24.5434386058       50.5406246739
C                19.9132043219       25.0963176822       51.5320621361
C                20.6506639692       25.0685837578       52.8721602675
O                21.1611992106       24.0382815625       53.2975857137
C                18.6194087799       24.2749797982       51.6410409200
C                17.6534197474       24.8228738492       52.7019982442
C                17.0997745886       26.1912932760       52.3072027987
C                16.4951524429       23.8475075069       52.9188330310
H                21.2727103470       23.6665944870       50.7728247302
H                19.6905047126       26.1220795495       51.2290239255
H                18.1315494035       24.2676829734       50.6639962307
H                18.8980444595       23.2504903912       51.9009737571
H                18.2017860083       24.9226294517       53.6469979808
H                16.4024247570       26.5471606758       53.0617682595
H                17.8888829577       26.9325700773       52.2190979348
H                16.5713571823       26.1387877349       51.3562438872
H                15.8937695474       24.1551706280       53.7708657188
H                15.8509827423       23.8397453548       52.0427020595
H                16.8587372538       22.8404036352       53.1046494186
N                 9.7500736665       26.4239005033       45.7707364672
C                 9.6979647174       25.7557995578       47.0542530923
C                11.0893640943       25.5146168314       47.6483500106
O                11.2614297134       25.5606748705       48.8633420616
C                 8.9340743913       24.4295959521       46.9642687476
C                 7.4124165228       24.5887371202       46.9950245629
C                 6.8315244707       25.1500536749       45.6980018652
N                 5.3783184207       25.1492103091       45.7798031295
C                 4.5572638686       25.3068322662       44.7419394382
N                 3.2398789049       25.2544591722       44.9491565924
N                 5.0154859963       25.6172605055       43.5357499817
H                 9.7113498057       25.8371996278       44.9462786769
H                 9.1978353411       26.4330740433       47.7603363898
H                 9.2496051697       23.8931395392       46.0659582616
H                 9.2245692823       23.8019662417       47.8095000628
H                 6.9954930094       23.5964076766       47.1840478847
H                 7.1539170108       25.2376675629       47.8319149709
H                 7.1810253646       26.1751041020       45.5446454676
H                 7.1753253519       24.5358317988       44.8583083891
H                 4.9937206160       24.7895343347       46.6431778342
H                 2.8574608183       25.0326836068       45.8539737424
H                 2.6037196508       25.3595790353       44.1758364804
H                 5.9985755708       25.5774378363       43.2942388545
H                 4.3780808335       25.6587796129       42.7561909717
N                12.0657427090       25.2448347380       46.7836576785
C                13.4367376733       25.0606994644       47.2125989868
C                13.9823573196       26.3601968439       47.8277007495
O                14.5786977267       26.3718955793       48.8950073848
C                14.3068094024       24.6085275422       46.0373756646
C                15.7742828598       24.5609983949       46.4427489619
C                13.8702801105       23.2342143735       45.5408595445
H                11.8820627830       25.2256968780       45.7903265845
H                13.4618009203       24.3008753797       48.0038335387
H                14.1827270579       25.3336990636       45.2247543821
H                16.3623347606       24.3159671884       45.5645689144
H                16.0998483324       25.5206680216       46.8325554396
H                15.9372157189       23.8002926609       47.2033830594
H                14.4710159718       22.9579059104       44.6798049659
H                14.0164057030       22.4786216053       46.3105739012
H                12.8220125005       23.2218593081       45.2474728297
N                12.6585121368       28.8581562486       49.2814451543
C                12.2206789742       29.1143278267       50.6365548404
C                12.7401045615       28.0252284128       51.5861588459
O                13.3581148250       28.2879167072       52.6015082027
C                10.6941218441       29.2352191587       50.6929619881
O                10.3442723287       30.3379551221       49.8854928674
C                10.2206009567       29.4056815311       52.1351170328
H                11.9769876446       28.5835461509       48.5882880535
H                12.6695956494       30.0594873319       50.9649897401
H                10.2710120181       28.3108365972       50.2644767600
H                 9.3984216157       30.5078087884       49.9790420092
H                 9.1470362377       29.5685006551       52.1623391023
H                10.4698698159       28.5224493558       52.7169926968
H                10.7201997587       30.2606939846       52.5835887835
N                12.4007874354       26.7851460009       51.2023627685
C                12.8266543621       25.6082556006       51.9241510467
C                11.7817585301       25.2437248245       52.9825133390
O                11.7185219231       25.8115711895       54.0570534808
H                11.9863997930       26.6144516806       50.2946902163
H                12.9792749579       24.7961978851       51.2140161452
H                13.7630499927       25.8401147973       52.4387718529
N                10.9008050450       24.2926998416       52.6129855220
C                 9.9711737403       23.7194277472       53.5736910070
C                10.4796288032       22.3006054415       53.8840718924
O                11.6386589563       22.1465866331       54.2496773635
C                 8.5183243501       23.8922859823       53.1277596117
C                 8.2419197136       25.3682430934       52.8102579465
C                 6.7542877361       25.6195236931       52.5546363934
C                 6.5374747133       27.0070681806       51.9535760060
N                 5.0787532920       27.2724905882       51.7842845281
H                11.0190326486       23.8173789325       51.7318853908
H                10.1391597962       24.3112036216       54.4856214755
H                 8.3072198921       23.2783518455       52.2480570619
H                 7.8673752047       23.5621427361       53.9392033652
H                 8.5926038677       25.9796751832       53.6447239653
H                 8.8231695347       25.6433936884       51.9280249762
H                 6.3925333539       24.8473613220       51.8721481798
H                 6.2165323683       25.5242340392       53.4990923469
H                 6.9715752844       27.7652205383       52.6083927721
H                 7.0272643298       27.0578918555       50.9796517309
H                 4.9194058854       28.1479121863       51.2613960761
H                 4.6473864567       26.4876235657       51.2720205496
H                 4.6220213943       27.3420952131       52.7074952946
N                 9.6126390365       21.2813306525       53.7450851489
C                10.0230413394       19.9049925773       53.9488885356
C                10.1201997146       19.1171039565       52.6404355831
O                11.0751203353       18.3624746272       52.4204379361
C                 9.1081995750       19.1288853580       54.9365851100
C                 9.6698697223       19.1984660626       56.3564152188
C                 7.6735735241       19.6493833585       54.9068343210
H                 8.7156112334       21.4435945876       53.3089544924
H                11.0399243243       19.9498312359       54.3551604429
H                 9.1120473297       18.0809588236       54.6136522500
H                 8.9971309641       18.7008404265       57.0501342294
H                10.6402598017       18.7113427842       56.4050112337
H                 9.7879133335       20.2332091640       56.6653351287
H                 7.0409521128       18.9945833405       55.4985651086
H                 7.6300417621       20.6481721668       55.3328667260
H                 7.2797656459       19.6683002336       53.8930772265
N                 9.0846092167       19.2719712280       51.8257155319
C                 8.9350790543       18.7456675662       50.4804517512
C                 9.9291512271       19.4782341832       49.5727634826
O                 9.6027076198       20.3401032295       48.7724161732
C                 7.5026312313       19.0246358659       50.0376029791
C                 7.1448513564       20.5375993490       50.1328002221
O                 7.4621420760       21.1263687414       51.2045644178
O                 6.5246958381       21.0628668245       49.2050799921
H                 8.4308013397       20.0880708499       51.8951136502
H                 9.1475031064       17.6685664672       50.4463039396
H                 7.3594043217       18.6818533996       49.0114641456
H                 6.8170981539       18.4699149971       50.6836655671
N                11.2107883619       19.1263949829       49.8032507459
C                12.3067150501       19.8977322416       49.2360150527
C                13.0758945087       18.9610825360       48.2994726244
O                12.8566379848       18.9595117489       47.0951600154
C                13.1055451409       20.6001082731       50.3387465168
C                13.8987752785       21.7785473119       49.7949363248
S                15.3026653314       21.2726577317       48.7550431415
C                16.5817827952       21.1417277976       50.0487637261
H                11.3836215110       18.5834011242       50.6538324578
H                11.8356751802       20.6435103099       48.5817465311
H                12.3936030162       20.9663385475       51.0848751267
H                13.7611498396       19.9015976806       50.8590494632
H                13.2539318846       22.3851978133       49.1589896448
H                14.2903984006       22.3880176570       50.6091448530
H                17.4790427979       20.8007858855       49.5454951670
H                16.7467310073       22.1176665050       50.4949240209
H                16.2712075363       20.4242134467       50.8023922183
N                13.9337757569       18.1115084494       48.8827969900
C                14.6233771347       17.1235138473       48.0832539995
C                13.6282171139       16.1579962175       47.4426505134
O                13.7207519764       15.8438136028       46.2697997563
C                15.7389252125       16.3930664578       48.8566180869
C                16.8868012399       17.3651994510       49.1292449950
C                15.2594672518       15.7581780231       50.1608665134
H                14.0233586917       18.0723263353       49.8859581856
H                15.0774055920       17.6504515367       47.2341771072
H                16.0952056923       15.5979816790       48.1940958118
H                17.7072994474       16.8391656716       49.6109563967
H                17.2434472742       17.8015452442       48.2002132173
H                16.5476187892       18.1674488106       49.7790048070
H                16.0772299095       15.1949608278       50.6021838383
H                14.9520931176       16.5112219260       50.8829466196
H                14.4338160810       15.0734319837       49.9885866472
N                12.6965565065       15.6243087202       48.2594152290
C                11.6972587819       14.7207703692       47.7145108312
C                11.0828914749       15.3119574789       46.4382478883
O                11.1043742519       14.7054327455       45.3781702706
C                10.6292156646       14.3957872709       48.7579377865
C                 9.3435063345       13.8924994915       48.1117096356
C                 8.4160847454       15.0782446103       47.6803302946
O                 8.4616658123       16.1146214655       48.3843084462
O                 7.6931891093       14.8854380980       46.6859426801
H                12.4965301027       16.0588075389       49.1481978175
H                12.2008731591       13.7977008511       47.3977117829
H                11.0209740553       13.6622368153       49.4632850722
H                10.3689836717       15.3050331473       49.3109781359
H                 9.5408589534       13.2808133710       47.2295925879
H                 8.7574456463       13.3039710143       48.8211542795
N                10.6075448055       16.5672999820       46.5716801999
C                 9.8116559997       17.1208648310       45.4942267422
C                10.5931991226       17.1212669503       44.1947192576
O                10.1313279018       16.6630903632       43.1484309103
C                 9.3946921843       18.5411646299       45.8398170218
C                 8.8202114111       19.2003274443       44.5484401336
O                 7.6354199178       18.9478306214       44.2645896339
O                 9.6205580438       19.8975672039       43.8970254775
H                10.2541459049       16.8331393895       47.4831545312
H                 8.9022950379       16.5159529393       45.3315097365
H                 8.6267482394       18.5248423578       46.6170288111
H                10.2515709038       19.1206659264       46.1917159029
N                11.8250354141       17.6342281238       44.2509980103
C                12.5369145918       17.9371370279       43.0204556175
C                13.2543535100       16.6880554029       42.4894394330
O                13.6603959874       16.6477723974       41.3311436710
C                13.3800361497       19.2060163976       43.2138864502
C                13.5632271407       20.0706484520       41.9544788278
C                13.9678837378       21.4829113021       42.3722215135
C                14.6174017780       19.5232769039       41.0002162375
H                12.1195328188       18.0943038891       45.1007202222
H                11.7634369703       18.1600044382       42.2662790481
H                12.8228137434       19.8070211779       43.9385542767
H                14.3443081966       18.9606705860       43.6577676129
H                12.5935920881       20.1198385120       41.4450508173
H                14.1882723025       22.0842170144       41.4941922581
H                13.1612567949       21.9692325135       42.9146678137
H                14.8523098416       21.4482328148       43.0034282006
H                14.7522881392       20.2183705870       40.1728607040
H                15.5473158915       19.4291161626       41.5506702439
H                14.3078711645       18.5572643490       40.6180995001
N                13.3984805515       15.6505451624       43.3179169527
C                13.7906692902       14.3463391234       42.8125438141
C                12.5842351441       13.4323819269       42.5898890596
O                12.6679208767       12.2178497098       42.5595751183
C                14.9490022805       13.7213742840       43.6166221987
C                15.6982109720       12.6430862795       42.8180468870
C                14.4766338642       13.1342701547       44.9440475737
C                16.2649182959       13.1164366651       41.4852855225
H                13.0416513857       15.7029339821       44.2625648569
H                14.1452821957       14.5400884113       41.7888707189
H                15.6380449748       14.5450689399       43.8333154495
H                16.5215529019       12.2957825768       43.4446911312
H                15.0275930861       11.8007278859       42.6576009280
H                15.3327675529       12.7957275854       45.5210258699
H                13.9386135280       13.8778486182       45.5230530898
H                13.8126492836       12.2915437043       44.7723351240
H                16.8670768757       12.3200291794       41.0573661691
H                15.4704853265       13.3536850589       40.7803844462
H                16.8910678293       13.9893603327       41.6436739665
N                11.4566364755       14.0828363080       42.2270595054
C                10.3103441196       13.3606632291       41.7151316261
C                 9.9185485584       14.0601066421       40.4103596794
O                10.1660261142       13.5477775950       39.3276386358
C                 9.1807626576       13.2056010976       42.7399927456
C                 8.2504474464       12.0434461133       42.3983459501
C                 8.7998685437       10.6257788454       42.5227674194
O                 8.1637483911        9.6811909269       42.0755950952
N                 9.9701064011       10.4501277242       43.1468228081
H                11.2944286071       15.0360673923       42.5164395795
H                10.6839029423       12.3673008200       41.4353774928
H                 9.6252855024       13.0801488349       43.7318067914
H                 8.5983911728       14.1297952099       42.8004485253
H                 7.3736206214       12.0883923637       43.0501682299
H                 7.8809300870       12.1523312631       41.3755677755
H                10.5431228047       11.2116386160       43.4662024016
H                10.3264318334        9.5111947780       43.2383290832
H                20.9234075713       21.0590895647       54.2207330506
H                22.6119263339       19.8392789998       50.8205994803
H                21.3415007778       22.2436423109       43.6479413754
H                21.5811600753       23.7575234118       47.2145319436
H                20.3665821785       24.3877432898       49.7771570416
H                20.7236030562       25.9019348981       53.4200706311
H                 9.0539748134       26.9897362311       45.6980982150
H                13.8537454178       27.2307222218       47.3526801762
H                13.0365700735       29.6011803313       48.9423472200
H                 9.4549918079       14.9457586812       40.4374817128
