547
Properties=species:S:1:pos:R:3 pbc="F F F"
N      31.47600000      20.58200000      24.95000000 
C      32.41300000      21.22200000      25.82500000 
C      33.66600000      21.67200000      25.10200000 
O      34.16300000      22.75600000      25.35300000 
C      32.73700000      20.15200000      26.86400000 
C      31.48700000      19.26900000      26.88100000 
C      30.98600000      19.26700000      25.45200000 
H      31.98700000      22.10800000      26.25400000 
H      33.58000000      19.58200000      26.54800000 
H      32.95200000      20.60000000      27.83000000 
H      31.71100000      18.27500000      27.22300000 
H      30.73700000      19.68600000      27.54200000 
H      31.45800000      18.49900000      24.86600000 
H      29.94800000      19.21000000      25.38000000 
N      34.24300000      20.81000000      24.25800000 
C      35.55000000      21.14000000      23.72600000 
C      35.45000000      22.33100000      22.79300000 
O      36.22200000      23.28600000      22.91900000 
C      36.14600000      19.92600000      23.01700000 
C      36.40800000      18.78700000      23.99500000 
C      37.42400000      20.33200000      22.28800000 
C      37.46300000      19.10000000      25.05000000 
H      33.76900000      19.98500000      23.96100000 
H      36.17900000      21.44700000      24.52000000 
H      35.43000000      19.58500000      22.28600000 
H      35.47400000      18.52900000      24.49600000 
H      36.71000000      17.93200000      23.42900000 
H      37.92600000      19.45700000      21.91500000 
H      37.20500000      20.98500000      21.45300000 
H      38.09900000      20.86000000      22.95400000 
H      37.62000000      18.23900000      25.68100000 
H      38.41200000      19.34000000      24.57900000 
H      37.17800000      19.92600000      25.67400000 
N      34.52400000      22.27400000      21.86100000 
C      34.32200000      23.41500000      20.96800000 
C      34.08800000      24.64500000      21.74300000 
O      34.62000000      25.72900000      21.40400000 
C      33.13200000      23.08700000      20.08200000 
C      32.71900000      24.25600000      19.19800000 
C      31.72500000      23.79400000      18.15200000 
O      30.60800000      24.38800000      18.09400000 
O      32.08300000      22.83000000      17.39900000 
H      34.00800000      21.45000000      21.68000000 
H      35.19700000      23.57900000      20.37200000 
H      33.37900000      22.24000000      19.46900000 
H      32.30300000      22.80500000      20.71400000 
H      32.29000000      25.04700000      19.77300000 
H      33.59600000      24.63600000      18.67900000 
N      33.24900000      24.59600000      22.78000000 
C      32.94300000      25.80300000      23.51500000 
C      34.15000000      26.34700000      24.17500000 
O      34.42700000      27.58800000      24.15500000 
C      31.83900000      25.51700000      24.51200000 
C      31.44700000      26.71100000      25.37600000 
C      30.99100000      27.89200000      24.53300000 
C      30.37800000      26.28500000      26.34400000 
H      32.82000000      23.75600000      23.03800000 
H      32.61800000      26.57100000      22.80900000 
H      30.97500000      25.17300000      23.96500000 
H      32.16600000      24.70700000      25.14700000 
H      32.31900000      27.02600000      25.93300000 
H      30.63000000      28.68600000      25.17200000 
H      31.76100000      28.27500000      23.90900000 
H      30.14600000      27.57900000      23.89200000 
H      30.08900000      27.11600000      26.99100000 
H      29.48600000      25.96000000      25.81100000 
H      30.70900000      25.47600000      26.97200000 
N      34.95200000      25.49900000      24.81800000 
C      36.15000000      25.96000000      25.47600000 
C      37.08100000      26.54500000      24.42700000 
O      37.72100000      27.59900000      24.68500000 
C      36.81600000      24.79400000      26.18900000 
C      35.96000000      24.40500000      27.40300000 
C      38.23200000      25.11800000      26.58200000 
C      36.31200000      23.04200000      27.95000000 
H      34.71800000      24.53300000      24.85100000 
H      35.92600000      26.73400000      26.17100000 
H      36.82400000      23.94700000      25.50200000 
H      36.11800000      25.17900000      28.16700000 
H      34.93400000      24.42700000      27.13500000 
H      38.66400000      24.32400000      27.17100000 
H      38.86800000      25.28000000      25.72200000 
H      38.25300000      26.03200000      27.18600000 
H      35.69100000      22.81800000      28.82600000 
H      36.12900000      22.29000000      27.21100000 
H      37.34400000      22.98000000      28.26900000 
N      37.19700000      25.93700000      23.32800000 
C      38.10100000      26.40700000      22.29000000 
C      37.67000000      27.76700000      21.81800000 
O      38.49700000      28.65700000      21.59200000 
C      38.14600000      25.43400000      21.13600000 
C      38.87900000      24.18800000      21.50000000 
O      39.54600000      24.08700000      22.53900000 
N      38.80000000      23.18800000      20.60700000 
H      36.71500000      25.05400000      23.14900000 
H      39.08400000      26.53000000      22.70900000 
H      37.13900000      25.19400000      20.82100000 
H      38.65300000      25.89200000      20.29900000 
H      39.26100000      22.34400000      20.78200000 
H      38.23800000      23.27300000      19.79500000 
N      36.35700000      27.96700000      21.63800000 
C      35.87100000      29.24200000      21.21300000 
C      36.22300000      30.30800000      22.22400000 
O      36.69100000      31.38900000      21.87500000 
C      34.36700000      29.16600000      21.01800000 
C      33.71100000      30.49900000      20.71000000 
C      34.32600000      31.16200000      19.47200000 
C      32.22600000      30.30000000      20.50400000 
H      35.72100000      27.21400000      21.76700000 
H      36.36500000      29.53800000      20.28900000 
H      34.17100000      28.46800000      20.21700000 
H      33.93800000      28.75300000      21.92300000 
H      33.85300000      31.15900000      21.55100000 
H      33.80600000      32.07800000      19.25800000 
H      35.35900000      31.37700000      19.61300000 
H      34.21200000      30.50300000      18.61500000 
H      31.73300000      31.22800000      20.33500000 
H      32.04800000      29.64600000      19.65000000 
H      31.77500000      29.82600000      21.38200000 
N      35.98700000      30.01700000      23.49400000 
C      36.33100000      31.00400000      24.50400000 
C      37.79700000      31.33200000      24.43700000 
O      38.20800000      32.49200000      24.59300000 
C      36.05300000      30.47200000      25.89300000 
S      34.25100000      30.49900000      26.33900000 
H      35.58300000      29.16000000      23.76400000 
H      35.80300000      31.92600000      24.32800000 
H      36.36800000      29.44400000      25.96700000 
H      36.56500000      31.05600000      26.61200000 
H      34.12000000      31.83400000      26.44500000 
N      38.59600000      30.30800000      24.27100000 
C      40.04900000      30.49200000      24.24800000 
C      40.40400000      31.41700000      23.11700000 
O      41.16500000      32.37900000      23.26700000 
C      40.68800000      29.10900000      24.05000000 
O      40.38600000      28.30400000      25.16200000 
C      42.19000000      29.22900000      23.92100000 
H      38.23400000      29.38700000      24.18500000 
H      40.39200000      30.92100000      25.14600000 
H      40.27200000      28.67600000      23.15200000 
H      39.50500000      27.91600000      25.11300000 
H      42.60300000      28.23300000      23.79200000 
H      42.46000000      29.82400000      23.06800000 
H      42.60000000      29.66400000      24.81000000 
N      39.88500000      31.11600000      21.91800000 
C      40.25200000      31.84500000      20.75700000 
C      39.78000000      33.27500000      20.84100000 
O      40.46000000      34.21000000      20.38400000 
C      39.64600000      31.19100000      19.55300000 
C      40.30600000      29.86800000      19.23900000 
O      41.41100000      29.58700000      19.69200000 
N      39.64200000      29.07100000      18.42100000 
H      39.26700000      30.32000000      21.84300000 
H      41.31400000      31.88300000      20.66400000 
H      38.57800000      31.03400000      19.70100000 
H      39.75900000      31.82300000      18.68100000 
H      40.02300000      28.20300000      18.15100000 
H      38.71200000      29.30500000      18.08800000 
N      38.57500000      33.47900000      21.38400000 
C      37.98900000      34.78500000      21.38000000 
C      38.86300000      35.76900000      22.11100000 
O      38.83400000      36.97900000      21.78200000 
C      36.62700000      34.69700000      22.08300000 
H      38.03800000      32.69300000      21.70900000 
H      37.87500000      35.15200000      20.39500000 
H      36.17500000      35.67600000      22.11900000 
H      35.99000000      34.03100000      21.53600000 
H      36.75200000      34.32400000      23.08400000 
N      39.63300000      35.34000000      23.07400000 
C      40.44900000      36.26200000      23.81800000 
C      41.52500000      36.89900000      22.97300000 
O      42.13700000      37.87800000      23.42900000 
C      41.04100000      35.59700000      25.03900000 
C      40.00000000      35.25700000      26.09500000 
C      40.69000000      34.56700000      27.26300000 
C      39.27100000      36.49700000      26.58100000 
H      39.66900000      34.37400000      23.31200000 
H      39.83700000      37.10300000      24.12300000 
H      41.55700000      34.70600000      24.73300000 
H      41.77100000      36.27500000      25.47700000 
H      39.28600000      34.57400000      25.67300000 
H      39.98800000      34.29800000      28.02200000 
H      41.20900000      33.67700000      26.93000000 
H      41.43000000      35.24200000      27.69900000 
H      38.62200000      36.25200000      27.41600000 
H      39.97900000      37.24600000      26.91500000 
H      38.65000000      36.93600000      25.81300000 
N      41.75300000      36.40800000      21.76400000 
C      42.73900000      37.04800000      20.90200000 
C      42.19700000      38.17200000      20.08400000 
O      42.97600000      38.84100000      19.37600000 
H      41.28000000      35.62500000      21.42500000 
H      43.55100000      37.41700000      21.48000000 
H      43.10500000      36.30800000      20.21400000 
N      40.87800000      38.42300000      20.07900000 
C      40.29700000      39.34500000      19.15100000 
C      40.38600000      40.80000000      19.55700000 
O      40.40000000      41.15800000      20.76000000 
C      38.82700000      39.01300000      18.94400000 
C      38.66900000      37.88100000      17.96200000 
O      38.54000000      36.71500000      18.30900000 
N      38.71200000      38.24900000      16.68600000 
H      40.26700000      37.88800000      20.67500000 
H      40.84200000      39.24900000      18.20400000 
H      38.39100000      38.72000000      19.89500000 
H      38.31700000      39.87200000      18.57800000 
H      38.65000000      37.56500000      15.96900000 
H      38.80900000      39.21100000      16.41000000 
N      40.35100000      41.66000000      18.55600000 
C      40.36200000      43.08200000      18.78000000 
C      38.93000000      43.57700000      18.91700000 
O      38.31700000      44.01600000      18.01900000 
C      41.06800000      43.80900000      17.65300000 
C      42.57200000      43.61200000      17.75100000 
C      43.15700000      44.54700000      18.77000000 
O      42.73500000      45.70900000      18.90600000 
N      44.17900000      44.07900000      19.48900000 
H      40.31900000      41.34000000      17.60800000 
H      40.88700000      43.26600000      19.71100000 
H      40.70300000      43.42100000      16.70600000 
H      40.84500000      44.84600000      17.68700000 
H      42.81400000      42.58700000      18.00300000 
H      43.04100000      43.83700000      16.80700000 
H      44.50100000      43.13800000      19.39800000 
H      44.63500000      44.67500000      20.14100000 
N      38.41300000      43.48200000      20.16700000 
C      37.03000000      43.81000000      20.40500000 
C      36.75800000      45.27800000      20.31700000 
O      35.57800000      45.67700000      20.29700000 
C      36.57600000      43.24500000      21.74300000 
C      36.50400000      41.75400000      21.68900000 
C      35.60400000      41.13300000      20.83300000 
C      37.34100000      40.97600000      22.46800000 
C      35.56100000      39.76000000      20.76800000 
C      37.27800000      39.58900000      22.39200000 
C      36.36800000      38.99700000      21.53400000 
H      38.95400000      43.06400000      20.88300000 
H      36.43600000      43.38100000      19.62800000 
H      37.26200000      43.56400000      22.51500000 
H      35.61400000      43.66300000      21.96000000 
H      34.96100000      41.73600000      20.22300000 
H      38.04900000      41.44700000      23.12200000 
H      34.85400000      39.30200000      20.08100000 
H      37.95300000      38.99000000      22.96900000 
H      36.35900000      37.91800000      21.46700000 
N      35.11000000      42.27500000      15.12800000 
C      35.34400000      41.24600000      16.08200000 
C      34.14800000      41.06500000      16.95400000 
O      33.76200000      39.90300000      17.29100000 
C      36.53600000      41.58900000      16.95400000 
H      35.66000000      43.10000000      15.14000000 
H      35.50600000      40.29700000      15.58500000 
H      36.65700000      40.84800000      17.72000000 
H      37.43400000      41.63100000      16.35700000 
H      36.38500000      42.55400000      17.41900000 
N      32.39400000      37.40800000      16.92200000 
C      32.49000000      36.56400000      18.09800000 
C      31.11700000      36.36700000      18.69800000 
O      30.79700000      35.26200000      19.15800000 
C      33.50500000      37.11500000      19.08900000 
C      33.52100000      36.26300000      20.34100000 
C      34.87700000      37.12600000      18.44300000 
H      32.82000000      38.32100000      16.95700000 
H      32.81600000      35.58800000      17.79300000 
H      33.20700000      38.13100000      19.34200000 
H      34.24400000      36.67500000      21.05100000 
H      32.56800000      36.23400000      20.82400000 
H      33.81800000      35.26400000      20.10300000 
H      35.62600000      37.42200000      19.17000000 
H      35.11500000      36.11400000      18.11000000 
H      34.92300000      37.79300000      17.61100000 
N      29.62200000      33.72100000      16.71200000 
C      30.24400000      32.43900000      17.00200000 
C      29.65800000      31.83800000      18.23200000 
O      29.30200000      30.63600000      18.25500000 
C      31.74100000      32.59700000      17.17800000 
C      32.43500000      32.89900000      15.86800000 
C      33.88200000      33.21000000      16.08800000 
O      34.24400000      33.93500000      17.01000000 
N      34.73700000      32.67600000      15.21700000 
H      30.21000000      34.51600000      16.60900000 
H      30.03400000      31.74100000      16.19500000 
H      31.92200000      33.39600000      17.88500000 
H      32.13500000      31.68500000      17.59700000 
H      32.31900000      32.06500000      15.18500000 
H      31.99100000      33.77500000      15.40900000 
H      34.44600000      32.07800000      14.48800000 
H      35.71100000      32.88000000      15.30700000 
N      29.56600000      32.60700000      19.31200000 
C      28.99900000      32.05300000      20.50900000 
C      27.57400000      31.59400000      20.24500000 
O      27.18900000      30.49700000      20.61200000 
C      29.01400000      33.04400000      21.65800000 
C      30.34900000      33.06300000      22.35500000 
C      30.65400000      32.01800000      23.23100000 
C      31.27600000      34.04200000      22.13500000 
C      31.87800000      31.98500000      23.87200000 
C      32.52800000      34.02000000      22.77500000 
C      32.82100000      32.97600000      23.64300000 
H      29.86200000      33.55700000      19.28700000 
H      29.53500000      31.15500000      20.79300000 
H      28.78200000      34.03600000      21.26600000 
H      28.25200000      32.78300000      22.36000000 
H      29.93300000      31.25400000      23.40500000 
H      31.05600000      34.83900000      21.44300000 
H      32.10600000      31.17900000      24.53900000 
H      33.22700000      34.77800000      22.59500000 
H      33.75300000      32.95400000      24.13400000 
N      26.72400000      27.96400000      18.86700000 
C      27.18200000      26.68500000      19.34900000 
C      26.10800000      25.86400000      19.98300000 
O      26.29000000      24.63100000      20.12500000 
C      28.36000000      26.80800000      20.32600000 
C      29.52000000      27.52700000      19.66700000 
C      27.97400000      27.42600000      21.65100000 
H      26.95600000      28.81900000      19.35600000 
H      27.52000000      26.12400000      18.50000000 
H      28.66800000      25.77000000      20.50800000 
H      30.38500000      27.51300000      20.33200000 
H      29.79900000      27.04800000      18.74300000 
H      29.26900000      28.55700000      19.46800000 
H      28.82700000      27.43000000      22.30200000 
H      27.65900000      28.45500000      21.50200000 
H      27.18200000      26.89400000      22.12800000 
N      27.49500000      37.71300000      28.40800000 
C      28.49900000      37.71700000      27.36600000 
C      27.85700000      38.14700000      26.07300000 
O      28.40200000      39.04200000      25.37300000 
C      29.07400000      36.31300000      27.21700000 
C      29.97700000      36.14600000      26.00900000 
C      31.11800000      37.14500000      26.01100000 
C      30.52100000      34.72600000      25.99200000 
H      27.34200000      36.82900000      28.90900000 
H      29.25700000      38.42000000      27.59600000 
H      29.63100000      36.08000000      28.11700000 
H      28.25500000      35.61600000      27.15200000 
H      29.38600000      36.29000000      25.12000000 
H      31.77600000      36.96400000      25.17100000 
H      30.75700000      38.16000000      25.93100000 
H      31.69200000      37.05000000      26.91000000 
H      31.11900000      34.55100000      25.11900000 
H      31.14300000      34.56400000      26.87000000 
H      29.71900000      34.00400000      26.01300000 
N      34.63200000      46.65600000      25.18600000 
C      35.73000000      45.74500000      25.07900000 
C      36.02500000      45.09300000      26.40100000 
O      36.24700000      43.86500000      26.45700000 
C      36.93200000      46.53200000      24.59300000 
O      36.64400000      46.93000000      23.23400000 
C      38.22300000      45.74600000      24.60400000 
H      34.73300000      47.60500000      24.88400000 
H      35.53100000      44.98100000      24.35900000 
H      37.03100000      47.42100000      25.21300000 
H      37.22100000      47.64900000      22.97400000 
H      38.99300000      46.33200000      24.12300000 
H      38.52600000      45.51400000      25.61700000 
H      38.07700000      44.84200000      24.04700000 
N      36.09300000      45.87400000      27.44700000 
C      36.38800000      45.31800000      28.74300000 
C      35.29400000      44.36700000      29.16300000 
O      35.56900000      43.29000000      29.72500000 
C      36.56000000      46.44000000      29.77400000 
C      36.68500000      45.88700000      31.17900000 
C      37.80600000      47.25400000      29.42000000 
H      35.92000000      46.86300000      27.36200000 
H      37.29400000      44.73200000      28.69600000 
H      35.68700000      47.07600000      29.70700000 
H      36.89600000      46.69500000      31.85800000 
H      35.79300000      45.38900000      31.50300000 
H      37.51400000      45.17700000      31.22900000 
H      37.93100000      48.04100000      30.13600000 
H      38.67800000      46.61100000      29.45300000 
H      37.72500000      47.69300000      28.43300000 
N      33.30400000      42.55800000      27.34300000 
C      33.35200000      41.33100000      26.60300000 
C      34.41200000      40.43000000      27.21200000 
O      34.13600000      39.21700000      27.44100000 
C      33.72600000      41.62500000      25.13700000 
C      32.53200000      42.27600000      24.44800000 
C      34.15800000      40.37600000      24.44200000 
C      32.93600000      42.95700000      23.15000000 
H      33.43100000      43.43200000      26.86600000 
H      32.41100000      40.81900000      26.65100000 
H      34.53500000      42.33200000      25.16200000 
H      31.78700000      41.50700000      24.24200000 
H      32.08200000      43.00100000      25.08400000 
H      34.36800000      40.56600000      23.39600000 
H      35.07400000      39.96400000      24.86800000 
H      33.39800000      39.60500000      24.49000000 
H      32.08100000      43.39600000      22.66400000 
H      33.65200000      43.74000000      23.35400000 
H      33.38800000      42.25700000      22.45200000 
N      35.55300000      40.92400000      27.42100000 
C      36.65300000      40.08300000      27.87400000 
C      36.36400000      39.58900000      29.26400000 
O      36.68500000      38.42800000      29.60800000 
C      37.95800000      40.88600000      27.84800000 
C      38.37600000      41.09400000      26.39300000 
C      39.64700000      41.90300000      26.29800000 
N      40.24100000      41.75900000      24.98600000 
C      40.87700000      40.65400000      24.58100000 
N      41.15600000      39.70500000      25.40400000 
N      41.21700000      40.51900000      23.29900000 
H      35.73500000      41.91300000      27.26400000 
H      36.72800000      39.23600000      27.25800000 
H      37.82000000      41.81000000      28.34900000 
H      38.71700000      40.32200000      28.35500000 
H      38.51700000      40.13000000      25.93600000 
H      37.59200000      41.60300000      25.85100000 
H      39.46000000      42.94000000      26.45500000 
H      40.36700000      41.58600000      27.04700000 
H      40.07500000      42.48300000      24.30400000 
H      40.95200000      39.74600000      26.38500000 
H      41.58400000      38.85400000      25.04900000 
H      40.87900000      41.11300000      22.57600000 
H      41.67100000      39.68000000      23.03500000 
N      35.78300000      40.42200000      30.08700000 
C      35.42200000      40.03200000      31.43000000 
C      34.44700000      38.90200000      31.38500000 
O      34.56600000      37.89600000      32.11800000 
C      34.81100000      41.23300000      32.14500000 
O      35.77100000      42.27600000      32.26300000 
H      35.56700000      41.36300000      29.78500000 
H      36.29800000      39.68500000      31.96400000 
H      33.94800000      41.55300000      31.61900000 
H      34.53800000      40.93100000      33.14900000 
H      35.80400000      42.79700000      31.45100000 
N      33.42700000      39.02400000      30.53900000 
C      32.42800000      38.01000000      30.44800000 
C      33.01800000      36.73500000      29.92100000 
O      32.65000000      35.62200000      30.42100000 
C      31.29500000      38.47400000      29.54800000 
H      33.34000000      39.84500000      29.98000000 
H      32.04900000      37.78000000      31.43500000 
H      30.54600000      37.71200000      29.47200000 
H      30.84800000      39.36800000      29.97300000 
H      31.67600000      38.71200000      28.57400000 
N      33.89800000      36.80000000      28.95800000 
C      34.51800000      35.57900000      28.45800000 
C      35.28400000      34.93000000      29.58700000 
O      35.21900000      33.70400000      29.76500000 
C      35.45300000      35.88400000      27.28700000 
C      34.60000000      36.31500000      26.09500000 
C      36.27400000      34.66400000      26.95000000 
C      35.45200000      36.87200000      24.94800000 
H      34.12900000      37.66600000      28.53800000 
H      33.77500000      34.88300000      28.16200000 
H      36.08900000      36.69800000      27.56700000 
H      34.03100000      35.45600000      25.74700000 
H      33.90700000      37.06300000      26.39700000 
H      36.86600000      34.83200000      26.06600000 
H      36.96400000      34.41900000      27.75300000 
H      35.64300000      33.80600000      26.78200000 
H      34.80700000      37.18500000      24.12900000 
H      36.00100000      37.72800000      25.28800000 
H      36.13700000      36.14200000      24.57000000 
N      36.03100000      35.68900000      30.35100000 
C      36.78200000      35.10900000      31.44500000 
C      35.85900000      34.43800000      32.41200000 
O      36.14600000      33.34000000      32.91600000 
C      37.55000000      36.23600000      32.14400000 
C      38.25400000      35.69800000      33.34400000 
O      37.76900000      35.81300000      34.48800000 
N      39.41000000      35.07200000      33.12600000 
H      36.12800000      36.68000000      30.16200000 
H      37.45400000      34.36500000      31.07800000 
H      38.23900000      36.66400000      31.45200000 
H      36.84400000      36.98700000      32.46800000 
H      39.90900000      34.66800000      33.87800000 
H      39.78800000      34.99400000      32.20300000 
N      32.93600000      33.17800000      31.94000000 
C      32.41300000      31.93500000      31.39700000 
C      33.49300000      30.86200000      31.46000000 
O      33.24800000      29.74000000      31.84600000 
C      31.97500000      32.17200000      29.95600000 
C      31.43400000      30.92800000      29.27600000 
C      30.29400000      30.28500000      30.04600000 
C      30.97100000      31.29700000      27.87300000 
H      33.02200000      33.97200000      31.34200000 
H      31.61800000      31.58700000      31.99200000 
H      31.19300000      32.92400000      29.98300000 
H      32.80000000      32.57200000      29.39600000 
H      32.24100000      30.20000000      29.18500000 
H      29.86900000      29.47500000      29.49300000 
H      30.62800000      29.90800000      31.00700000 
H      29.51500000      31.02800000      30.22900000 
H      30.66500000      30.41000000      27.32300000 
H      30.12000000      31.96500000      27.93600000 
H      31.74700000      31.79200000      27.31800000 
N      34.71600000      31.25600000      31.05500000 
C      35.78800000      30.27800000      31.06300000 
C      35.93300000      29.63200000      32.38800000 
O      36.11600000      28.39800000      32.46000000 
C      37.09100000      30.97800000      30.65000000 
C      37.09000000      31.17700000      29.14100000 
C      38.30700000      30.16400000      31.07700000 
C      38.21200000      32.09000000      28.67400000 
H      34.88700000      32.14800000      30.75800000 
H      35.57200000      29.48200000      30.37100000 
H      37.11600000      31.92000000      31.14500000 
H      37.15400000      30.23200000      28.66500000 
H      36.14200000      31.63600000      28.85100000 
H      39.20200000      30.63200000      30.74600000 
H      38.35300000      30.05900000      32.14800000 
H      38.26000000      29.15900000      30.64900000 
H      38.16100000      32.27300000      27.61700000 
H      38.16400000      33.04400000      29.18200000 
H      39.18600000      31.65100000      28.88400000 
N      33.48600000      26.93900000      32.84200000 
C      33.72200000      25.82300000      31.97400000 
C      34.89800000      25.02000000      32.49000000 
O      34.85600000      23.77600000      32.43800000 
C      33.96800000      26.28400000      30.55600000 
C      32.76400000      27.01200000      29.95300000 
C      33.08900000      27.32600000      28.50400000 
C      31.49600000      26.21700000      30.07000000 
H      33.66400000      27.88300000      32.50700000 
H      32.89000000      25.16500000      32.02100000 
H      34.83100000      26.92700000      30.53500000 
H      34.18100000      25.41200000      29.95200000 
H      32.64400000      27.95200000      30.49100000 
H      32.28200000      27.89900000      28.05300000 
H      33.99700000      27.89700000      28.42000000 
H      33.19900000      26.41100000      27.95000000 
H      30.68100000      26.72800000      29.56100000 
H      31.61100000      25.23800000      29.60900000 
H      31.19100000      26.06800000      31.10500000 
H      30.70092926      21.03944247      24.95342665 
H      37.51864213      45.92581438      20.27504666 
H      35.22947387      41.94804068      14.29804603 
H      33.64112983      41.86320444      17.27950316 
H      32.78418689      36.99566649      16.22361954 
H      30.46852367      37.12781550      18.72326303 
H      29.16828421      33.66624330      15.93666544 
H      26.93618271      32.19511111      19.76348725 
H      27.04381464      28.10454037      18.03756224 
H      25.26006359      26.29844967      20.28673891 
H      27.71696814      38.31264537      29.04136844 
H      27.00236198      37.72268191      25.77375426 
H      33.93842642      46.34876071      24.70168635 
H      34.33660731      44.59882906      28.99079509 
H      32.49978568      42.63882692      27.73886152 
H      34.99441871      34.87363570      32.66244106 
H      32.40602336      33.45931662      32.61080976 
H      35.88432976      30.18315238      33.22098395 
H      32.61990882      26.95163127      33.08639011 
H      35.69665437      25.48891681      32.86718460 
