 443 
 
N                11.2497956348       10.0902163204       25.0018681295
C                11.0660895430       10.6153248866       26.3357687411
C                 9.5954947961       11.0214932383       26.5362109211
O                 8.9498653059       11.5632791661       25.6524415948
C                11.8955421986       11.8959526967       26.5390010594
C                13.3752355226       11.6713177247       26.6874123026
C                13.8642080628       10.9540329986       27.7727867527
C                14.2877305862       12.2281572889       25.8000805698
C                15.2214070103       10.7918929490       27.9698585462
C                15.6492457802       12.0974138439       26.0021730326
C                16.1320005518       11.3745725011       27.0922923934
O                17.4724407436       11.2546824615       27.2677289098
H                11.2272201269       10.7554896400       24.2293923791
H                11.3435795382        9.8435700645       27.0579390272
H                11.7077516794       12.5579248788       25.6927880152
H                11.5188096287       12.3838889732       27.4431880386
H                13.1738003464       10.5160690069       28.4761358878
H                13.9452080261       12.7708894996       24.9325880609
H                15.5790237736       10.2279408678       28.8186739662
H                16.3369098887       12.5614178330       25.3115564348
H                17.6668169124       10.6028973109       27.9987067933
N                 9.1225594439       10.8039040199       27.7728245787
C                 7.8031899090       11.2249046219       28.1913287559
C                 7.9240320267       12.4644651210       29.0889595587
O                 8.5369390756       12.4094806241       30.1534140703
C                 7.1253362901       10.1064284660       29.0052914804
O                 7.8979372916        9.7249334041       30.1119149672
H                 9.6763402007       10.2929575001       28.4469522844
H                 7.2307710857       11.4502908299       27.2878611452
H                 6.1351349392       10.4638390908       29.3239857082
H                 7.0007479750        9.2183945949       28.3810005581
H                 8.1931694610       10.5467883483       30.5438179392
N                 7.3416721958       13.5748944478       28.6325747076
C                 7.2656366259       14.7932166081       29.4184997348
C                 6.1064971850       14.6788685030       30.4179270271
O                 5.0030976347       14.2644574327       30.0830101624
C                 7.0484261756       16.0113621796       28.5050717926
C                 8.2755377911       16.2175030592       27.6090212750
C                 6.7536033083       17.2526443532       29.3454783620
C                 7.9818038516       17.1038189019       26.4048089893
H                 6.7621460382       13.5350669404       27.8071554984
H                 8.2042863041       14.8962387320       29.9687134487
H                 6.1747128710       15.8003959417       27.8786607265
H                 9.0757716861       16.6600225901       28.2048793119
H                 8.6289394119       15.2458458187       27.2568136667
H                 6.7191099145       18.1367148271       28.7154351099
H                 5.7941482579       17.1589888553       29.8494694064
H                 7.5220571363       17.3915906862       30.1012077206
H                 8.8711070131       17.1937810465       25.7877857975
H                 7.1839755289       16.6757210849       25.8039045406
H                 7.6808255748       18.1011658636       26.7121029058
N                 6.4208373972       15.0880062271       31.6487443141
C                 5.4699377483       15.1744430546       32.7204321244
C                 5.2419669041       16.6016093521       33.2204436746
O                 4.1534012839       16.9048815016       33.6976683868
C                 5.8943584270       14.3097867967       33.9295345574
O                 7.0876917103       14.8587658941       34.4487414831
C                 6.0660754256       12.8522454984       33.5133219487
H                 7.3800260844       15.3492485042       31.8693736745
H                 4.5087086854       14.8030557430       32.3484384728
H                 5.0978914276       14.3930625079       34.6877216438
H                 7.4615724345       14.2248435505       35.0738159326
H                 6.3095850991       12.2361225484       34.3752734762
H                 5.1489610382       12.4800443797       33.0662288281
H                 6.8657904388       12.7694606522       32.7802969203
N                 6.2653254483       17.4607615220       33.1404438521
C                 6.1126625377       18.7968489563       33.6649536706
C                 6.4959203504       19.8505359579       32.6307126496
O                 7.4119003032       19.6882075508       31.8298781728
C                 6.9578930664       19.0647425816       34.9389484787
O                 8.2785937103       19.3647695255       34.5367841485
C                 6.8901200819       17.8858633524       35.9019637504
H                 7.1665670399       17.1814015765       32.7696212994
H                 5.0560229527       18.8756031167       33.9353445619
H                 6.5243178530       19.9537205319       35.4255094334
H                 8.8022463126       19.5729910802       35.3229512794
H                 7.4095391954       18.1252304978       36.8261800970
H                 5.8518383661       17.6604936073       36.1280155019
H                 7.3427424811       17.0066874659       35.4500677854
N                 5.8365202505       21.0145353684       32.6912647691
C                 6.1771904830       22.0677715503       31.7396854943
C                 7.6647869687       22.3791275719       31.7247853240
O                 8.2647761903       22.6513091613       30.6937239542
C                 5.3486013844       23.2721448964       32.1980159566
C                 4.1164872691       22.6130449779       32.8119408291
C                 4.6920020446       21.3832657582       33.5132190554
H                 5.8978640470       21.7513459992       30.7276275408
H                 5.8961126272       23.8364842151       32.9529655546
H                 5.1087291236       23.9343762289       31.3707925675
H                 3.5972181841       23.2678605452       33.5052987039
H                 3.4249730953       22.3089314739       32.0272427874
H                 5.0266284879       21.6292738932       34.5256483167
H                 3.9681486801       20.5701439832       33.5700394179
N                 8.2529619347       22.4424274892       32.9295669715
C                 9.6366065602       22.8399987160       33.0395903643
C                10.5730055072       21.9709441354       32.2036192267
O                11.6633516705       22.4020896585       31.8534333008
C                10.0799651159       22.8475689115       34.5158689917
O                 9.9815264805       21.5889448771       35.1265491107
H                 7.8210916120       22.0397237419       33.7486969426
H                 9.7482213664       23.8599144398       32.6501677776
H                11.0978155035       23.2485084386       34.5685356915
H                 9.4142568335       23.5088251401       35.0752972360
H                10.7120070873       21.0274002729       34.8439416094
N                10.1728515019       20.7263221177       31.9224737426
C                11.0652058622       19.8490286102       31.2032050957
C                11.3243182643       20.2817880082       29.7596112698
O                12.3809726626       19.9898794464       29.2049241564
C                10.5320778283       18.4195458565       31.2246896802
C                10.5236939921       17.8645642998       32.6496699858
C                 9.9183483984       16.4807142805       32.6685942943
O                 8.8607125425       16.2439263042       32.0881082513
N                10.5930926144       15.5729628223       33.3668628515
H                 9.2351763203       20.3830514858       32.1116216572
H                12.0428751012       19.8763566074       31.7043853314
H                 9.5156435499       18.4077565751       30.8269652026
H                11.1643416505       17.7987224085       30.5875026115
H                11.5278498151       17.8381861964       33.0692105206
H                 9.8808119877       18.4902670139       33.2737297137
H                11.4829474244       15.8133453067       33.7917708553
H                10.2631366911       14.6223636629       33.4344942007
N                10.3580759918       20.9573413648       29.1342997354
C                10.4823155911       21.2772441056       27.7237540139
C                11.8544886059       21.8636276079       27.3910430703
O                12.4505762984       21.5391778287       26.3699476134
C                 9.3896873548       22.2662969259       27.2817985725
C                 8.0942107807       21.5628961856       26.9743075222
C                 7.9036868157       20.9475637934       25.7432916525
C                 7.0737665704       21.5180902081       27.9138454945
C                 6.7116615408       20.3060038332       25.4557148700
C                 5.8829675915       20.8716612005       27.6291937358
C                 5.6976620171       20.2661522549       26.3983588467
H                 9.5115301858       21.2386679470       29.6150214854
H                10.4010281431       20.3518619314       27.1361188781
H                 9.2403198179       22.9970820971       28.0772008543
H                 9.7379794920       22.7828900060       26.3849060176
H                 8.6923713767       20.9754450571       25.0060098224
H                 7.2200674044       22.0033482564       28.8656228095
H                 6.5728788343       19.8361294728       24.4945858697
H                 5.0924267039       20.8417045123       28.3643863594
H                 4.7680705162       19.7659947878       26.1733739642
N                12.3114220218       22.8139496350       28.2154640193
C                13.5287088547       23.5504580924       27.9267814716
C                14.7152555907       22.6322055171       27.6458267234
O                15.5892580192       22.9452380164       26.8375893080
C                13.8386096440       24.5427054099       29.0658120583
C                14.1058075456       23.8305511243       30.3871016143
C                15.0299236070       25.4223338432       28.6962584225
H                11.8371858841       23.0098990702       29.0849443063
H                13.3680549605       24.1216234134       27.0006710830
H                12.9514364106       25.1768515229       29.1704976101
H                14.3078045729       24.5716613862       31.1548892497
H                13.2610125836       23.2356195401       30.7163586004
H                14.9707312351       23.1811780015       30.2970918477
H                15.1627180535       26.2029007805       29.4396148814
H                15.9386680942       24.8280273915       28.6664001222
H                14.8919560677       25.8890817495       27.7248865252
N                14.7739288083       21.4947112476       28.3373397140
C                15.8731731475       20.5760640021       28.1542168968
C                16.0010866535       20.0606478939       26.7146614548
O                17.0666148910       19.6016997522       26.3171699948
C                15.7155969017       19.3802493849       29.1009862278
C                16.0638203929       19.7574531175       30.5138461460
C                17.3865935160       19.9062452956       30.9111287894
C                15.0593972038       19.9863026943       31.4429853736
C                17.6958315846       20.2504800217       32.2147461205
C                15.3646546912       20.3393841281       32.7454763693
C                16.6862900812       20.4657070771       33.1376277167
H                13.9843751733       21.1708115450       28.8832669903
H                16.8107800904       21.1038422732       28.3779296677
H                14.6837649956       19.0304082808       29.0451403301
H                16.3674864476       18.5786294344       28.7517028595
H                18.1854035660       19.7580281485       30.1996495746
H                14.0324993908       19.8838548843       31.1308155719
H                18.7290438058       20.3582276417       32.5065029443
H                14.5735122953       20.5195529638       33.4563979600
H                16.9276151447       20.7309920316       34.1561879840
N                14.8925668572       20.1084422478       25.9779984312
C                14.7927713147       19.6172830411       24.6263345069
C                14.8518111353       20.7436383154       23.5873561854
O                14.4261064250       20.5927277210       22.4525853152
C                13.4870720775       18.8317930731       24.4622406377
C                13.2863755197       17.7309345267       25.5119771302
C                12.0005617160       16.9617677575       25.2141286515
C                14.4693641771       16.7681163296       25.5615873512
H                14.0481869360       20.5538339023       26.3247598353
H                15.6579389339       18.9715213843       24.4269518438
H                12.6607332347       19.5431922034       24.5294557811
H                13.4884475846       18.4063489333       23.4589747826
H                13.1864678102       18.2071733002       26.4938808260
H                11.7799498715       16.2680530489       26.0220432448
H                11.1659318504       17.6483864134       25.1022639708
H                12.1085225133       16.3897754005       24.2959935384
H                14.2504275255       15.9226341932       26.2094174310
H                14.6912517096       16.3787546543       24.5710487145
H                15.3602808146       17.2639887270       25.9397879677
N                15.3780351450       21.9045659218       24.0109163037
C                15.5493561061       23.0311110393       23.1212680830
C                16.9638023028       23.0255800868       22.5206829675
O                17.7520213455       22.1158228254       22.7256909905
C                15.2193785099       24.3447612056       23.8643521113
O                16.2016069256       24.7247910950       24.7867380763
H                15.7761003407       21.9904780670       24.9373946223
H                14.8394127976       22.8822012121       22.2974209117
H                15.1193945627       25.1627812648       23.1457567401
H                14.2486051029       24.2103955012       24.3541589465
H                16.0996851549       24.1816200127       25.5927856822
N                19.9855692274       23.9422502161       22.9641895885
C                20.5135684614       24.3186235562       24.2564930946
C                21.8207293059       23.6216232737       24.6281084934
O                22.2308291432       23.7117156655       25.7850187407
C                19.4716834677       24.0356131837       25.3438135415
H                19.6569089853       22.9865129265       22.8784193572
H                20.7075407218       25.3974480453       24.2153291757
H                19.8635773373       24.3212898820       26.3147148065
H                18.5614371634       24.5953387814       25.1446110045
H                19.2382936388       22.9728250585       25.3540791657
N                22.4861491151       22.9751143948       23.6760145295
C                23.5889986479       22.0994395243       24.0240751230
C                24.8145126784       22.3563985935       23.1453321886
O                24.7212884500       22.4869134917       21.9335952780
C                23.1206476282       20.6398344198       23.8263824827
C                21.9779821097       20.3469033119       24.7414132659
C                20.6416776008       20.3851151198       24.4484786438
C                22.0762070776       20.0226486477       26.1288269513
N                19.9046355705       20.0905552081       25.5601282859
C                20.7519260481       19.8527541071       26.5989973587
C                23.1395489161       19.8533046167       27.0143120712
C                20.4873897734       19.5030774215       27.9169831965
C                22.8710767531       19.4776789408       28.3102293983
C                21.5575874610       19.3045457513       28.7606501699
H                22.0713534879       22.8257670981       22.7579123601
H                23.8231498681       22.2792412850       25.0759142725
H                22.8088422270       20.5249455499       22.7867234371
H                23.9528784214       19.9722012202       24.0478204845
H                20.1652552120       20.6014036786       23.5103503128
H                18.8999019350       20.0126949089       25.6147125316
H                24.1532092074       20.0301892488       26.6988421991
H                19.4687028558       19.3948141580       28.2514180212
H                23.6926078891       19.3148158831       28.9943825293
H                21.3876056813       19.0311973774       29.7921051790
N                19.1563552312       16.2610000294       22.9993037450
C                18.0184640767       15.4068832072       23.3076874443
C                16.7771359341       16.0720163397       22.7123032806
O                16.6453943227       17.2906909304       22.7037563622
C                17.9478966558       15.3485363321       24.8411037280
C                19.2207768316       16.0568434363       25.3029907757
C                19.4936092517       17.0393349365       24.1718853688
H                18.1606257940       14.4270551538       22.8475112208
H                17.0685164162       15.8834545310       25.1945054077
H                17.8925794832       14.3226832455       25.1928217535
H                19.0970281235       16.5565278685       26.2607641723
H                20.0455708240       15.3492110419       25.3637259013
H                18.8092178483       17.8918408527       24.2399822695
H                20.5192711958       17.3822774327       24.1628596483
N                15.8702301619       15.2147479359       22.2453636436
C                14.5886644996       15.6111401943       21.7138992318
C                13.5963139233       14.5305940522       22.1305332643
O                13.9837229068       13.4458543235       22.5442992851
C                14.6035005647       15.7470654334       20.1767676579
C                15.6624450738       16.7599117242       19.7273746935
C                15.5668754077       16.9837524687       18.2281084106
O                15.9886224806       16.1838046178       17.4101984925
N                14.9360414028       18.1145403190       17.8639941588
H                16.0474780634       14.2103707179       22.3213790872
H                14.3281552273       16.5832585993       22.1504881649
H                14.8174427890       14.7814203702       19.7157141647
H                13.6217639342       16.0819844183       19.8395294765
H                15.5324852022       17.6995389817       20.2657980010
H                16.6574233382       16.3683742568       19.9505124880
H                14.6406649920       18.7991005840       18.5385020295
H                14.8633355031       18.3391175823       16.8845552923
N                12.2925582347       14.7839290041       21.9716765354
C                11.3220714032       13.7627274099       22.3409851281
C                11.7853759081       12.3952419126       21.8255286153
O                11.6661522578       11.3774979862       22.4913521852
C                 9.9207501169       14.1118050942       21.8050461703
C                 8.9696248304       12.9293175169       21.9866315289
C                 9.3633901674       15.3299364953       22.5386828394
H                11.9554912360       15.6807148958       21.6543617337
H                11.2734148477       13.6821940563       23.4359246012
H                10.0078551196       14.3379344333       20.7372413512
H                 7.9707575415       13.2080566358       21.6624388517
H                 9.2924764168       12.0706658246       21.4043609825
H                 8.9237589752       12.6349135673       23.0333032622
H                 8.3900268069       15.5875286797       22.1303397102
H                 9.2454609621       15.1013040701       23.5945663572
H                10.0106611043       16.1971883243       22.4454189419
N                24.9585881161       22.7438708171       28.8511147497
C                23.5767575530       23.1791759968       28.8181595682
C                23.4526616156       24.7014051940       28.9924580482
O                23.7714258456       25.2726499602       30.0311842948
C                22.8416654519       22.4867319077       29.9685809674
C                21.3689858707       22.7633360923       30.0552995309
C                20.5493649189       22.8049401734       28.9328541664
C                20.7868596526       22.9123387024       31.3077009308
C                19.1842298154       22.9842189530       29.0620812454
C                19.4265664404       23.0983168322       31.4484819387
C                18.6133123976       23.1253989080       30.3232470440
O                17.2652797014       23.2864350265       30.4165504562
H                25.3733547729       22.5997578976       29.7632515192
H                23.1766663460       22.8932119403       27.8419037083
H                22.9856921755       21.4093145186       29.8601081486
H                23.3159932251       22.8056985323       30.8984672733
H                20.9716703894       22.6783355907       27.9488555830
H                21.4024221658       22.8652644946       32.1920041111
H                18.5419831100       23.0108574192       28.1949076976
H                18.9899900279       23.2230139339       32.4283343643
H                17.0150166524       23.4073649085       31.3419578581
N                21.0862055992       26.5246182407       29.6259937951
C                20.2408771464       26.9710296547       30.7037583295
C                20.5984143895       26.3653680956       32.0581059713
O                19.8280814783       26.4241271224       33.0069571754
C                18.7607515397       26.7813626011       30.3489680652
C                18.4111427409       27.6021058211       29.1387641155
C                18.3909559676       28.9919114449       29.2107235627
C                18.1501747987       26.9970716564       27.9183248148
C                18.1260444179       29.7578506292       28.0938649828
C                17.8684199140       27.7519077874       26.7935450557
C                17.8611036374       29.1401644289       26.8722540336
O                17.6123860403       29.9322996108       25.7981805342
H                20.9205624465       25.5999722795       29.2534259340
H                20.4385421043       28.0460791039       30.8251962551
H                18.5696801906       25.7247115063       30.1607181733
H                18.1753560933       27.0949580770       31.2138567964
H                18.5841926632       29.4876168672       30.1526190811
H                18.1495043432       25.9204266365       27.8424373411
H                18.1159649348       30.8346719030       28.1513407534
H                17.6486920534       27.2563431275       25.8592728085
H                17.4254520841       29.3918265896       25.0192044644
N                21.9058644408       13.9662931794       33.0706473405
C                20.8624953202       14.6504504488       32.3319873456
C                19.4803101432       14.1119513233       32.6998857710
O                18.5765604337       14.8735515737       33.0570033631
C                21.0794918233       14.4628054352       30.8258824947
C                19.8561286504       14.8784962126       30.0568471436
C                19.5328124687       16.2189896213       29.9046088001
C                19.0229888325       13.9223329568       29.4929547633
C                18.4043680765       16.5860519675       29.1955024817
C                17.8844054144       14.2879588705       28.7972988839
C                17.5735401167       15.6269087803       28.6438991700
H                22.6361200733       13.5102222459       32.5282771054
H                20.8603203616       15.7168360425       32.5951501780
H                21.9442917667       15.0484813341       30.5098722146
H                21.2906689183       13.4092922975       30.6405801127
H                20.1739569461       16.9764660947       30.3278327084
H                19.2874454097       12.8808012179       29.5906094736
H                18.1792858525       17.6310487179       29.0648564408
H                17.2456101109       13.5333562609       28.3683719753
H                16.6960538095       15.9207809251       28.0893812921
N                19.3033416006       12.8045333835       32.5762044799
C                18.0147941164       12.2082587320       32.8758628766
C                17.6493467985       12.4827486503       34.3351844994
O                16.5236648868       12.8521286348       34.6526998244
C                18.0080648745       10.7283272892       32.4803709839
C                17.8149518419       10.6396198540       30.9700904812
C                18.0423947129        9.2822902700       30.2912416847
O                18.2616162603        8.2549468896       30.9494931625
O                17.9842577141        9.3092008525       29.0315273152
H                20.0532193310       12.1900371805       32.2683204682
H                17.2362109619       12.7164445439       32.2891715364
H                18.9447130770       10.2590032593       32.7847269923
H                17.1832372232       10.2230794541       32.9829459141
H                16.7944855299       10.9550097286       30.7342336467
H                18.4964735153       11.3331963081       30.4777230707
N                18.4860522513       14.9532385709       36.2072814475
C                18.2627448752       16.3611968325       36.4630410520
C                16.9321178104       16.8506717507       35.8800911258
O                16.1956280280       17.6227192404       36.4697327812
C                19.3858085371       17.2047438434       35.8315804167
O                20.6469861248       16.9856083554       36.3915464954
H                19.1936490967       14.7092299478       35.5243500577
H                18.2294512434       16.5231557709       37.5463088679
H                19.4000259431       17.0039723051       34.7513170319
H                19.1482738957       18.2582975059       35.9966567730
H                20.9129539468       16.0747723669       36.1870645763
N                16.7016896291       16.4005101494       34.6394200152
C                15.5213151742       16.7615225790       33.8919977705
C                14.2760314008       16.0146771847       34.3676663077
O                13.1631898061       16.5164963416       34.2599125722
C                15.7163253658       16.4356597092       32.3984446944
O                15.9156061761       15.0633709632       32.1765404517
H                17.3726158323       15.7777841865       34.2058908914
H                15.3321791785       17.8351505586       34.0060985506
H                14.8095123633       16.7177445727       31.8592173855
H                16.5552584663       17.0220331195       32.0096489470
H                16.8254975727       14.8441336118       32.4494489801
N                14.4969298860       14.7836732878       34.8277247132
C                13.4325999007       13.8757827644       35.1609320232
C                12.8029639022       13.2002143798       33.9421214873
O                11.7671283848       12.5521894459       34.0453124750
H                15.4248684687       14.3766766818       34.8043999968
H                13.8298411307       13.0991562710       35.8170295479
H                12.6421653974       14.4132012420       35.6918885733
N                13.4176854873       13.3983408658       32.7736921748
C                12.9189034634       12.7574159691       31.5764240558
C                13.3365374333       11.2815722275       31.5858537341
O                14.4924876713       10.9279906083       31.7584369939
C                13.4561618967       13.4696748575       30.3404571259
C                12.8103286092       14.8459918249       30.1411757760
C                13.6598483329       15.6571101306       29.1682041062
C                11.3825865743       14.7223393785       29.6153342578
H                14.3306125439       13.8368972271       32.7155756787
H                11.8256697987       12.8095851332       31.6136696698
H                14.5367815208       13.5797774968       30.4556586576
H                13.2863648499       12.8481146097       29.4592387303
H                12.7878727039       15.3573785190       31.1094731685
H                13.2162333893       16.6315150553       28.9782090881
H                14.6604659929       15.8001583781       29.5672365459
H                13.7425087090       15.1192936997       28.2259716176
H                10.9276353798       15.7047159274       29.5211517015
H                11.3857681249       14.2516303188       28.6341662884
H                10.7557745468       14.1293607414       30.2764352823
N                12.3138175710       10.4318833457       31.4177627427
C                12.4525733846        8.9915062334       31.3877004544
C                12.3113913677        8.5541373657       29.9263320519
O                11.4397089200        9.0270514494       29.2070489317
C                11.3765896391        8.3109936813       32.2526495699
C                11.5345693769        6.7922025780       32.2003957793
C                11.4664037355        8.8029243276       33.6953821777
H                11.3781566980       10.7842109847       31.2833608797
H                13.4520891573        8.7593104386       31.7679488751
H                10.3989946301        8.5797996294       31.8363497911
H                10.7579061961        6.3222649702       32.7968479398
H                11.4486770273        6.4131802536       31.1840676826
H                12.4999871734        6.4942853320       32.6037488779
H                10.6715673812        8.3601754445       34.2886835201
H                12.4210575482        8.5160389334       34.1312822542
H                11.3766144087        9.8855788559       33.7573963305
H                12.0521425120        9.6863587692       24.9458452161
H                17.2640130564       23.7834194758       21.9414136313
H                19.2823707260       24.4665620889       22.7626730194
H                25.7221954448       22.4216758845       23.5598811855
H                19.7536195012       15.8001563639       22.5084896175
H                12.1997866234       12.3168664341       20.9188197076
H                25.0355641275       21.9557161486       28.4234619557
H                23.1015876292       25.2634504840       28.2435574219
H                20.9982585304       27.0817602277       28.9246678228
H                21.4786679280       25.9080380651       32.1846087429
H                22.3326906797       14.5541351474       33.6019299231
H                18.3345111768       12.3618087274       35.0534625164
H                18.7397740627       14.5461139784       36.9687765615
H                12.9363874081        7.8725388631       29.5458015923
