547
Properties=species:S:1:pos:R:3 pbc="F F F"
N      31.67900000      20.30000000      24.85000000 
C      32.88800000      20.87900000      25.50700000 
C      33.63200000      21.46600000      25.29500000 
O      34.46000000      22.43800000      25.29900000 
C      32.90800000      20.37400000      26.78800000 
C      31.82900000      18.75100000      26.56000000 
C      31.58600000      18.81600000      25.14900000 
H      32.11000000      21.91700000      26.07500000 
H      33.86600000      19.40700000      26.57300000 
H      32.93600000      20.29300000      27.65100000 
H      31.96400000      17.93300000      26.97100000 
H      30.74300000      19.25100000      27.29300000 
H      32.04500000      18.34500000      24.56800000 
H      30.30800000      18.57200000      24.85900000 
N      34.87100000      20.73400000      24.16300000 
C      35.85000000      21.11300000      23.59400000 
C      35.20900000      21.92300000      22.53200000 
O      36.66900000      23.12100000      22.52900000 
C      36.12700000      19.51200000      22.73000000 
C      36.66500000      18.63300000      24.18500000 
C      37.97700000      19.87900000      22.26300000 
C      37.38200000      19.01000000      25.00900000 
H      33.91200000      19.60400000      23.86400000 
H      36.33600000      21.36900000      24.16400000 
H      35.90800000      19.40600000      22.21200000 
H      35.83800000      18.36500000      24.32300000 
H      37.12500000      17.68200000      23.27400000 
H      38.10500000      19.26200000      21.78300000 
H      37.48900000      20.67500000      21.07200000 
H      38.21400000      20.47500000      22.54500000 
H      37.80700000      17.96000000      25.77700000 
H      38.77800000      19.19400000      24.59600000 
H      37.31200000      19.63100000      25.65500000 
N      34.92300000      22.24000000      21.68000000 
C      34.30800000      23.16200000      20.79600000 
C      33.96400000      24.38100000      21.91300000 
O      34.76200000      25.73000000      21.09300000 
C      33.08200000      23.01300000      19.72800000 
C      32.95600000      23.82400000      19.02800000 
C      32.07100000      23.23400000      17.68900000 
O      30.50500000      23.98900000      17.74700000 
O      32.09800000      22.66600000      17.24300000 
H      33.94400000      21.27200000      21.64600000 
H      35.20400000      23.41000000      20.17300000 
H      33.36800000      21.92300000      19.36200000 
H      32.23100000      22.76300000      20.53800000 
H      32.38400000      24.86900000      19.30300000 
H      33.68400000      24.16500000      18.33900000 
N      33.53200000      24.73000000      22.55900000 
C      33.34700000      25.38300000      23.57400000 
C      34.13600000      25.88400000      23.87700000 
O      34.79200000      27.58600000      24.18800000 
C      31.87600000      25.40100000      24.39100000 
C      31.37100000      26.73500000      25.34100000 
C      30.99600000      27.95100000      24.14600000 
C      30.13800000      26.36700000      26.04100000 
H      32.81600000      23.50000000      23.02300000 
H      32.90500000      26.60500000      22.71800000 
H      31.11100000      25.17400000      23.88400000 
H      32.26800000      24.66000000      25.15300000 
H      32.42100000      27.06500000      25.88600000 
H      30.69700000      28.72400000      25.02800000 
H      31.85400000      28.28100000      23.78100000 
H      30.25300000      27.64600000      23.80100000 
H      30.16800000      27.01700000      26.76800000 
H      29.66200000      26.00400000      25.69600000 
H      30.77200000      25.42600000      26.93100000 
N      35.19000000      25.65100000      24.80100000 
C      36.65500000      25.49400000      25.28900000 
C      37.27900000      26.27200000      24.33600000 
O      38.14100000      27.34400000      24.62500000 
C      36.92000000      24.67200000      26.35200000 
C      36.12800000      24.07100000      27.56300000 
C      38.43100000      24.91100000      26.42900000 
C      36.50000000      23.31700000      28.24100000 
H      34.96800000      24.22400000      24.80500000 
H      36.19500000      26.70400000      26.05200000 
H      37.11000000      23.68300000      25.66500000 
H      36.37300000      25.33900000      28.19900000 
H      35.30700000      24.37100000      27.27300000 
H      38.91600000      24.26300000      27.21300000 
H      39.23800000      25.00800000      25.76700000 
H      38.64600000      25.72500000      27.14200000 
H      35.82700000      22.99200000      29.15200000 
H      36.31700000      22.11300000      27.50200000 
H      37.56800000      23.15300000      28.65300000 
N      37.67600000      25.83400000      23.11200000 
C      38.34100000      26.29800000      22.39300000 
C      37.92200000      27.63600000      21.57100000 
O      38.80600000      28.36800000      21.43000000 
C      38.25900000      24.97000000      20.96400000 
C      39.29100000      24.16500000      21.16500000 
O      40.06600000      23.96100000      22.43000000 
N      39.58900000      22.73200000      20.31200000 
H      36.87500000      24.78500000      22.96000000 
H      39.21800000      26.43100000      22.48800000 
H      37.66500000      25.03100000      20.59600000 
H      38.91100000      25.75600000      20.18500000 
H      39.78300000      22.39800000      20.33600000 
H      38.85600000      23.16500000      19.59400000 
N      36.73700000      27.72500000      21.65900000 
C      36.21700000      29.34700000      20.94600000 
C      36.46800000      30.03000000      22.23100000 
O      36.77500000      31.29700000      21.74200000 
C      34.69700000      28.82800000      20.59900000 
C      33.96100000      30.39200000      20.29900000 
C      34.49700000      30.95300000      19.33300000 
C      32.34800000      30.16300000      20.22300000 
H      35.88400000      27.03700000      21.66200000 
H      36.60900000      29.39300000      20.33400000 
H      34.41800000      28.39700000      20.06500000 
H      34.01900000      28.53500000      21.72800000 
H      34.01900000      31.05200000      21.27300000 
H      34.01900000      31.95300000      18.90200000 
H      35.62500000      31.31600000      19.30100000 
H      34.49200000      30.37500000      18.28700000 
H      32.00600000      30.89100000      20.07400000 
H      32.34500000      29.42500000      19.36600000 
H      32.00200000      29.68200000      20.99200000 
N      36.38500000      29.65800000      23.33300000 
C      36.80200000      30.95500000      24.49900000 
C      38.05000000      31.37000000      24.52300000 
O      38.46800000      32.05900000      24.79900000 
C      35.95300000      30.05600000      25.69700000 
S      34.61000000      30.23300000      26.32600000 
H      35.93500000      29.17400000      23.68500000 
H      36.18600000      31.83100000      24.26800000 
H      36.45200000      29.15000000      25.99900000 
H      36.83500000      30.91900000      26.34300000 
H      33.83900000      31.52700000      26.50000000 
N      38.95000000      30.07200000      24.21000000 
C      40.31000000      30.28600000      24.04500000 
C      40.70000000      31.08600000      23.02100000 
O      41.82900000      32.33100000      23.14800000 
C      41.11100000      28.95500000      24.38200000 
O      40.78100000      28.31600000      25.33400000 
C      42.68600000      29.23300000      24.11000000 
H      38.64300000      29.51100000      24.14400000 
H      40.66800000      30.92600000      25.09800000 
H      40.77700000      28.38900000      23.19300000 
H      39.82400000      27.83400000      25.18000000 
H      43.00800000      28.07200000      24.20000000 
H      42.93700000      29.48100000      23.39500000 
H      42.92200000      29.63500000      24.99100000 
N      40.20800000      30.60600000      21.96300000 
C      40.53700000      31.81100000      20.49400000 
C      40.21600000      33.30900000      20.51000000 
O      40.75100000      34.00200000      20.20600000 
C      39.95700000      31.26000000      19.52700000 
C      40.49900000      29.70200000      18.72900000 
O      41.89000000      29.46100000      19.38100000 
N      40.18000000      28.93400000      18.12500000 
H      39.66300000      30.33400000      21.65300000 
H      41.70300000      31.78800000      20.57400000 
H      38.88800000      30.82600000      19.43400000 
H      40.16800000      31.72300000      18.50300000 
H      40.33300000      28.37500000      17.80200000 
H      39.04400000      29.28800000      17.77500000 
N      39.18500000      33.30100000      21.17600000 
C      38.40600000      34.81700000      21.37700000 
C      39.20800000      35.63000000      22.08300000 
O      39.05200000      37.03600000      21.65600000 
C      37.08300000      34.73400000      21.82300000 
H      38.26600000      32.61100000      21.69600000 
H      38.22500000      35.08600000      20.23800000 
H      36.44900000      35.66000000      21.85400000 
H      36.26000000      33.98900000      21.28500000 
H      36.97300000      34.26900000      22.92300000 
N      39.94700000      35.59800000      22.78000000 
C      40.64900000      36.51500000      23.96700000 
C      42.19200000      37.20800000      22.58200000 
O      42.38600000      37.96000000      23.34100000 
C      41.41800000      35.53100000      24.59100000 
C      40.18200000      35.40700000      26.04600000 
C      41.28100000      34.62600000      27.28400000 
C      39.89700000      36.34600000      26.47400000 
H      40.10000000      34.12100000      23.36500000 
H      40.33500000      36.94600000      23.95100000 
H      41.90000000      34.86200000      24.77200000 
H      42.26700000      36.44300000      25.44800000 
H      39.86300000      34.83100000      25.79800000 
H      40.52400000      34.36300000      28.06100000 
H      41.61100000      33.71400000      26.89000000 
H      41.99800000      35.24600000      27.64200000 
H      39.11000000      36.42000000      27.63400000 
H      40.61200000      37.47200000      27.09900000 
H      39.17300000      37.16200000      25.92500000 
N      42.07100000      36.22100000      21.67200000 
C      42.89400000      37.37400000      20.96800000 
C      42.48300000      38.00700000      20.10900000 
O      43.60700000      38.94600000      19.02700000 
H      41.76300000      35.63500000      21.21000000 
H      44.00000000      37.60800000      21.21700000 
H      43.45800000      36.27200000      20.14800000 
N      41.34200000      38.38100000      19.73300000 
C      40.56200000      39.22700000      18.97500000 
C      40.77900000      40.87700000      19.40900000 
O      40.88200000      41.08700000      20.21000000 
C      39.41200000      39.22000000      18.37900000 
C      39.12800000      37.59600000      17.63800000 
O      39.10500000      36.79700000      18.05800000 
N      39.12600000      38.21200000      16.34200000 
H      40.68700000      37.90400000      20.41100000 
H      41.25700000      39.30000000      17.96700000 
H      38.66300000      38.65400000      19.60800000 
H      38.72100000      39.68500000      18.16600000 
H      39.09400000      37.36600000      15.69200000 
H      39.14200000      38.76300000      15.97200000 
N      40.70600000      41.67400000      18.55600000 
C      40.69700000      43.05100000      18.60600000 
C      39.42600000      43.69100000      18.88800000 
O      38.61800000      44.16600000      17.53200000 
C      41.31400000      43.94900000      17.45300000 
C      43.15500000      43.59200000      17.80000000 
C      43.58100000      44.65700000      18.89500000 
O      43.26000000      45.58600000      18.98500000 
N      44.48400000      44.24800000      19.54800000 
H      40.66000000      41.53400000      17.58700000 
H      41.16200000      43.33700000      19.59500000 
H      41.22300000      43.58900000      16.72200000 
H      41.29300000      44.87100000      17.65000000 
H      43.22400000      42.74300000      17.82200000 
H      43.52100000      44.02300000      16.78100000 
H      44.82400000      43.17800000      19.44900000 
H      45.00100000      44.52000000      20.18600000 
N      38.56100000      43.69800000      20.18900000 
C      37.54900000      44.06600000      20.15500000 
C      37.08300000      45.69400000      20.15900000 
O      36.03400000      45.80400000      20.16800000 
C      36.74700000      43.29400000      21.64000000 
C      36.82500000      41.94200000      21.68600000 
C      35.80100000      41.42200000      20.69600000 
C      37.66000000      41.37700000      22.61300000 
C      35.82600000      39.96200000      20.79600000 
C      37.58700000      40.15000000      22.52600000 
C      36.45200000      39.34900000      21.49600000 
H      39.27200000      43.33100000      20.76600000 
H      36.64100000      43.67400000      19.44600000 
H      37.53200000      43.83000000      22.39800000 
H      35.76300000      43.97100000      21.84600000 
H      35.20700000      41.83200000      20.09700000 
H      38.14600000      41.52200000      23.00800000 
H      35.03500000      39.45800000      20.11600000 
H      38.13600000      39.15500000      23.17000000 
H      36.48500000      37.98600000      21.64500000 
N      35.27400000      42.53800000      14.65500000 
C      35.11100000      41.17700000      16.14800000 
C      34.36100000      41.01800000      16.46600000 
O      33.87000000      39.96600000      17.09200000 
C      36.51500000      41.66600000      16.80200000 
H      35.73100000      43.05400000      14.97100000 
H      35.48500000      40.29500000      15.24900000 
H      36.73000000      40.99800000      17.37300000 
H      37.69700000      41.61400000      15.99300000 
H      36.59300000      42.62800000      17.22200000 
N      32.41900000      37.65500000      16.87300000 
C      32.43300000      36.62500000      17.79500000 
C      30.99500000      36.13600000      18.43400000 
O      30.66300000      35.58200000      18.99500000 
C      33.51400000      36.92500000      18.74400000 
C      33.67600000      36.30900000      20.13600000 
C      34.71900000      37.05000000      18.09100000 
H      32.68100000      38.26000000      16.64000000 
H      32.77200000      35.63100000      17.48800000 
H      33.31500000      38.23700000      19.12000000 
H      34.17700000      36.54100000      20.66300000 
H      32.61700000      36.23800000      20.63800000 
H      33.73900000      35.14500000      19.82900000 
H      35.75900000      37.32700000      18.86700000 
H      35.16200000      35.92700000      17.79300000 
H      34.99300000      37.72200000      17.18600000 
N      29.55900000      33.73200000      16.30700000 
C      30.06300000      32.24300000      16.61200000 
C      29.74700000      31.84400000      17.87600000 
O      29.15400000      30.30300000      17.87500000 
C      31.77300000      32.47500000      16.78200000 
C      32.18500000      32.63500000      15.46300000 
C      34.16500000      32.71400000      15.44600000 
O      34.21900000      33.67200000      16.48700000 
N      34.51800000      32.33400000      14.90300000 
H      30.26000000      34.38600000      16.31400000 
H      29.89100000      31.72400000      15.93900000 
H      31.86700000      33.19600000      17.35300000 
H      32.02600000      31.60500000      17.16700000 
H      32.10300000      31.77600000      14.78700000 
H      31.93000000      33.39000000      14.99200000 
H      34.18600000      31.38700000      13.87300000 
H      35.61900000      32.29900000      14.74300000 
N      29.30900000      32.51800000      19.07100000 
C      28.80200000      31.85000000      20.49700000 
C      27.39200000      31.20500000      20.06700000 
O      27.20100000      30.67300000      20.36600000 
C      29.00700000      33.03500000      21.36900000 
C      30.28400000      32.67400000      22.41700000 
C      30.37500000      32.11800000      22.86800000 
C      31.16800000      34.23900000      21.91700000 
C      31.78200000      31.87500000      23.97400000 
C      32.50300000      33.55200000      22.93100000 
C      32.54200000      33.08200000      23.40000000 
H      29.74200000      33.70100000      19.18000000 
H      29.33300000      31.07600000      20.50400000 
H      28.64200000      34.09300000      21.06600000 
H      28.05200000      32.70100000      22.09700000 
H      29.56800000      31.17200000      23.30000000 
H      31.00500000      34.49700000      21.48200000 
H      31.82600000      30.93500000      24.62500000 
H      33.04200000      34.63600000      22.58600000 
H      33.56100000      32.78800000      24.17100000 
N      26.49200000      28.14100000      18.28900000 
C      27.03700000      26.49500000      19.30500000 
C      26.10200000      25.76900000      19.71700000 
O      26.22400000      24.35100000      19.95800000 
C      28.39300000      26.67600000      20.01300000 
C      29.39100000      27.08100000      19.23200000 
C      28.08100000      27.15700000      21.29200000 
H      26.86400000      28.56700000      19.05400000 
H      27.40300000      25.82800000      18.04900000 
H      28.60700000      25.61400000      20.18000000 
H      30.34800000      27.17000000      19.72400000 
H      29.64900000      26.77500000      18.24000000 
H      29.30400000      28.31500000      18.95400000 
H      29.03900000      27.25800000      21.85100000 
H      27.87100000      28.34000000      21.15600000 
H      27.39700000      26.83800000      21.88100000 
N      27.24800000      38.12800000      28.38900000 
C      27.96000000      37.65200000      27.42900000 
C      27.73200000      38.23000000      26.18300000 
O      28.08900000      39.18200000      25.27500000 
C      28.92600000      36.71900000      27.35400000 
C      29.82800000      36.22800000      26.03000000 
C      30.65900000      37.21900000      26.17000000 
C      30.17600000      34.88500000      25.96800000 
H      27.19300000      37.09100000      28.99000000 
H      28.97100000      38.65100000      27.50400000 
H      29.38200000      36.24300000      28.15300000 
H      27.92400000      35.65700000      27.29800000 
H      29.30600000      36.35000000      25.29000000 
H      31.81800000      36.94800000      25.20000000 
H      30.69700000      38.28000000      25.99500000 
H      31.61700000      37.11100000      27.08800000 
H      30.85900000      34.60400000      25.36400000 
H      30.89400000      34.57900000      27.23900000 
H      29.49300000      34.07400000      26.15500000 
N      34.98000000      46.85600000      25.39800000 
C      35.73800000      45.63800000      25.50400000 
C      36.31600000      45.25200000      26.71500000 
O      36.34100000      43.95500000      26.71100000 
C      37.11900000      46.54600000      24.77000000 
O      36.71900000      46.96900000      23.38600000 
C      38.17800000      45.99900000      24.67600000 
H      34.83800000      47.76900000      25.25600000 
H      35.60100000      45.13900000      24.69400000 
H      37.32500000      47.67800000      25.41900000 
H      36.40800000      47.93100000      23.32200000 
H      39.15100000      46.46300000      24.21900000 
H      38.85100000      45.74900000      25.79000000 
H      38.25600000      45.06400000      24.25400000 
N      36.14800000      46.22100000      27.98200000 
C      36.33600000      45.37400000      29.04900000 
C      35.53300000      44.55500000      29.79700000 
O      35.67700000      43.59400000      30.06300000 
C      36.30900000      46.80000000      30.23100000 
C      37.10100000      46.27200000      31.48000000 
C      38.07800000      47.44000000      29.81400000 
H      36.06700000      47.12400000      27.75700000 
H      37.44600000      44.79800000      29.12200000 
H      36.11600000      47.25600000      30.10200000 
H      36.96100000      46.89400000      32.14300000 
H      35.73700000      45.70900000      32.06700000 
H      37.52900000      45.34900000      31.73400000 
H      38.27500000      48.19000000      30.39800000 
H      38.90900000      46.69900000      29.80500000 
H      38.08600000      47.78500000      28.76100000 
N      33.51500000      42.64500000      27.40500000 
C      33.65600000      41.37300000      26.81300000 
C      34.41600000      40.43400000      27.49500000 
O      34.38500000      39.53400000      27.54200000 
C      33.75100000      41.83600000      25.37500000 
C      32.49100000      42.35400000      24.78400000 
C      34.28400000      40.71300000      24.35600000 
C      32.84300000      42.99400000      23.27800000 
H      33.54000000      43.57600000      27.11400000 
H      32.50800000      40.87200000      26.94000000 
H      34.60300000      42.49900000      25.22200000 
H      31.81100000      41.59900000      24.49900000 
H      32.05600000      43.10500000      25.32500000 
H      34.32700000      40.67900000      23.75200000 
H      35.22600000      40.03900000      24.91200000 
H      33.47500000      39.60500000      24.73000000 
H      31.96200000      43.58700000      23.01300000 
H      33.63500000      44.00100000      23.58600000 
H      33.22300000      42.49500000      22.71300000 
N      35.91500000      41.30700000      27.62400000 
C      36.98000000      40.54000000      28.02800000 
C      36.54600000      39.37000000      29.53100000 
O      36.97700000      38.77700000      29.93300000 
C      38.39800000      40.77900000      28.22300000 
C      38.59300000      41.34900000      26.69900000 
C      40.25700000      41.94200000      26.67100000 
N      40.56400000      41.84800000      25.50500000 
C      41.32400000      40.84600000      24.41700000 
N      41.54400000      39.75700000      25.42300000 
N      41.57600000      40.70800000      23.67800000 
H      35.94800000      41.96500000      27.58600000 
H      36.94400000      39.46500000      27.61300000 
H      38.08900000      42.20600000      28.60600000 
H      38.81500000      40.65700000      28.58100000 
H      38.90700000      40.07600000      26.26300000 
H      37.97700000      41.61500000      26.03200000 
H      39.87200000      42.97000000      26.79300000 
H      40.72300000      41.69100000      27.16100000 
H      40.32400000      42.65800000      24.42900000 
H      41.56000000      39.87500000      26.49100000 
H      42.08900000      39.09100000      24.97000000 
H      41.01300000      41.50100000      22.72700000 
H      42.05100000      39.77300000      22.89500000 
N      36.02200000      40.56000000      30.48700000 
C      35.60600000      39.89600000      31.85000000 
C      34.48700000      39.25500000      31.61300000 
O      34.66500000      38.02600000      32.55300000 
C      34.67900000      41.30000000      32.60500000 
O      36.04800000      42.51400000      32.65200000 
H      35.61400000      41.80500000      30.07700000 
H      36.32700000      39.88900000      32.14900000 
H      34.17800000      41.79000000      32.10400000 
H      34.78100000      40.98600000      33.41800000 
H      36.05700000      42.97300000      31.97500000 
N      33.52200000      39.40200000      30.70700000 
C      32.60700000      37.98600000      30.70100000 
C      33.02700000      36.73300000      30.14600000 
O      32.61700000      35.77900000      30.58700000 
C      31.29400000      38.88700000      29.89200000 
H      33.42100000      39.74600000      30.35400000 
H      32.17900000      37.82600000      31.69200000 
H      30.56900000      37.79500000      29.82100000 
H      30.91400000      39.31600000      30.22700000 
H      31.53300000      38.90600000      28.94800000 
N      34.11700000      36.82300000      29.04800000 
C      34.70600000      35.83100000      28.83000000 
C      35.37800000      35.24200000      29.63900000 
O      35.48100000      33.75100000      29.97400000 
C      35.56400000      35.96800000      27.42300000 
C      34.68500000      36.43100000      26.21200000 
C      36.38800000      34.69700000      27.08800000 
C      35.60400000      36.67200000      25.03800000 
H      34.30200000      37.70100000      28.73500000 
H      33.84200000      34.96800000      28.40400000 
H      36.16300000      36.83600000      27.52400000 
H      34.09000000      35.46200000      25.96700000 
H      33.95400000      37.05400000      26.48900000 
H      37.01300000      34.93500000      26.18400000 
H      37.19100000      34.58700000      27.81800000 
H      35.80200000      33.89600000      26.91100000 
H      34.62700000      37.16300000      24.12300000 
H      35.98100000      37.67200000      25.28300000 
H      35.89900000      36.17800000      24.61600000 
N      36.24800000      35.66400000      30.72100000 
C      36.76200000      35.42400000      31.56400000 
C      36.17000000      34.38300000      32.71900000 
O      36.23600000      33.74900000      33.08400000 
C      37.88300000      36.58600000      32.38600000 
C      38.90500000      35.73000000      33.47100000 
O      38.19600000      36.00500000      34.83500000 
N      39.62400000      35.24100000      32.95400000 
H      36.29500000      36.77500000      30.40000000 
H      37.65200000      34.36100000      31.28200000 
H      38.37200000      36.76600000      31.64200000 
H      37.20200000      37.11500000      32.66600000 
H      40.37500000      34.76600000      33.99600000 
H      40.01500000      35.06800000      32.43900000 
N      33.15600000      33.16400000      31.71800000 
C      32.53200000      31.96700000      31.41100000 
C      33.47500000      30.80600000      31.67900000 
O      33.41000000      29.60600000      31.98500000 
C      32.29500000      32.10800000      30.26100000 
C      31.54300000      30.90200000      29.42300000 
C      30.06700000      30.51100000      30.14500000 
C      30.70000000      31.40900000      28.06700000 
H      33.21500000      34.06500000      31.46600000 
H      31.89200000      31.50500000      32.19300000 
H      31.19300000      33.01000000      30.16900000 
H      32.92800000      32.59400000      29.50100000 
H      32.16700000      30.27600000      29.34800000 
H      29.82400000      29.52400000      29.67700000 
H      30.71300000      29.84700000      31.28400000 
H      29.64200000      31.00500000      30.40700000 
H      30.68200000      30.59700000      27.55400000 
H      30.41900000      31.93600000      28.13000000 
H      31.84300000      31.81400000      27.48000000 
N      35.02200000      31.15000000      31.26600000 
C      36.25200000      30.35400000      31.23600000 
C      36.29800000      29.56600000      32.72700000 
O      36.37200000      28.57500000      32.74600000 
C      37.31200000      30.75600000      30.72300000 
C      37.50500000      31.36300000      29.38000000 
C      38.50600000      30.06000000      31.20100000 
C      38.61000000      32.04300000      29.04100000 
H      35.25500000      32.31900000      30.92700000 
H      35.79900000      29.40200000      30.63200000 
H      37.52000000      31.98600000      31.27500000 
H      37.39600000      29.97300000      28.85700000 
H      36.49400000      31.61300000      28.99900000 
H      39.58100000      30.67100000      30.98000000 
H      38.82400000      30.05700000      32.38600000 
H      38.63000000      29.25800000      30.97200000 
H      38.44000000      32.20500000      27.68900000 
H      38.57100000      32.84200000      29.18900000 
H      39.40800000      31.46300000      28.90700000 
N      33.83300000      27.06100000      32.84300000 
C      33.78400000      25.76700000      32.32200000 
C      35.15100000      24.76300000      32.62000000 
O      34.99800000      23.58600000      32.54600000 
C      34.05800000      26.01800000      30.66700000 
C      32.94400000      26.48200000      30.25400000 
C      33.06800000      27.05600000      28.51000000 
C      31.40400000      26.08300000      30.03500000 
H      33.73300000      27.36500000      32.82300000 
H      33.08100000      24.96500000      32.31600000 
H      34.96500000      26.70600000      30.65500000 
H      34.24900000      25.17500000      30.20000000 
H      32.61100000      27.66900000      30.67000000 
H      32.42100000      27.72600000      28.28200000 
H      34.02600000      27.84900000      28.65200000 
H      33.33600000      26.39700000      28.16800000 
H      30.98400000      26.11100000      29.80000000 
H      31.80100000      24.86800000      29.65000000 
H      31.34900000      25.59300000      31.06300000 
H      30.94134655      20.56129309      25.29451468 
H      37.77796116      46.41302256      20.15303847 
H      35.62977153      42.14496125      13.92771247 
H      33.63579302      41.70368712      16.40348592 
H      32.57218198      37.32385206      16.05027506 
H      30.14322952      36.56736104      18.13665390 
H      29.17657527      33.75884958      15.49273320 
H      26.84255595      31.63598552      19.35120484 
H      26.91707061      28.15900050      17.49591050 
H      25.20301857      26.16713592      19.89953813 
H      27.69448854      38.79854130      28.79027590 
H      27.00597326      37.87650085      25.59314958 
H      34.36125900      46.76937767      24.75019128 
H      34.66726748      44.89947037      30.16010792 
H      32.70009695      42.71273283      27.78095915 
H      35.33927174      34.61681374      33.22419471 
H      32.95631324      33.39866859      32.56360975 
H      36.25100494      30.09547354      33.57402375 
H      33.54907236      27.05197317      33.69699275 
H      36.03392689      25.17459788      32.84589220 
