 331 
 
N               145.2672829791       69.1118149649      114.8191878614
C               145.0551073032       68.5122496616      113.5209696375
C               144.7704557461       69.5784861614      112.4700845702
O               145.1884215848       69.4374737376      111.3218519877
C               143.9016666654       67.5095735414      113.5372615234
C               144.2086447496       66.2123184336      114.2965574703
C               142.9295916629       65.3821682276      114.4049887422
C               145.2959749454       65.3932879063      113.6069825110
H               144.6649829150       68.8212127479      115.5830211377
H               145.9806554907       68.0170624811      113.1997893650
H               143.0399581015       68.0066445109      113.9857781879
H               143.6510970789       67.2647942642      112.5029609761
H               144.5416012424       66.4703958553      115.3059462330
H               143.1163321313       64.4615236910      114.9516999191
H               142.1519051940       65.9331572104      114.9301319535
H               142.5561208468       65.1187255066      113.4174110724
H               145.4208075802       64.4445253082      114.1208823595
H               145.0169685137       65.1918189201      112.5753310532
H               146.2516737947       65.9091101325      113.6158003029
N               148.0025744227       70.9750693575      111.4988045201
C               148.6545711590       70.0067770577      110.6364753175
C               148.0537709022       70.1104634024      109.2287192986
O               148.7585608102       70.1891739941      108.2319947939
C               148.5390790821       68.5974646918      111.2376656994
C               149.4458640705       68.5269258592      112.4737829984
C               148.8965695736       67.5399726564      110.1965190462
C               149.2728275789       67.2611820804      113.3015539784
H               147.5356694644       70.6502125787      112.3416403278
H               149.7172562776       70.2717031752      110.5376970392
H               147.4970257850       68.4558489373      111.5400700794
H               150.4866092587       68.6059866870      112.1530555715
H               149.2289762393       69.3845521497      113.1135266650
H               148.8078664029       66.5467283676      110.6242446152
H               148.2255347238       67.6056391420      109.3445028116
H               149.9129586467       67.6821687828      109.8406885219
H               149.9711113112       67.2779236494      114.1338025974
H               148.2634877523       67.2055189400      113.7016183872
H               149.4692313713       66.3673141572      112.7175010478
N               153.0140699204       67.0466285871      116.5590218605
C               152.7183629164       65.6682523546      116.8774424926
C               153.1699866799       65.2996722197      118.2930111460
O               152.4424324613       64.7242523077      119.0846091953
C               153.4422134277       64.7487721629      115.8772972519
O               153.2379194407       63.3900976313      116.1554888917
H               153.3572867441       67.2424157118      115.6235707375
H               151.6360755602       65.4870217514      116.8150250940
H               153.1002071751       64.9979387509      114.8654207570
H               154.5187158332       64.9300773734      115.9379543801
H               152.3653721569       63.1532470176      115.8017664064
N               148.7069346708       63.2128823975      120.1047100398
C               149.0157688844       62.8124902630      118.7507871164
C               150.2154579446       61.8727256371      118.6468393125
O               150.6729014467       61.5675049713      117.5490315669
C               149.2815783982       64.0305371977      117.8619039759
C               148.0555269129       64.9074101448      117.6003155113
C               148.5016831015       66.1933655107      116.9090459858
C               147.0182859618       64.1868819679      116.7462504559
H               149.3348948122       63.8688333628      120.5469166770
H               148.1571100060       62.2411713016      118.3764591471
H               150.0667907553       64.6196426197      118.3445377703
H               149.6696274277       63.6620951587      116.9106118055
H               147.5953182227       65.1654883425      118.5598720063
H               147.6441215114       66.8155303080      116.6707018402
H               149.1720195074       66.7623605585      117.5504614024
H               149.0178611804       65.9539047329      115.9824641396
H               146.1612917584       64.8324491086      116.5757779221
H               147.4462001722       63.9169918918      115.7846687808
H               146.6714136007       63.2777119520      117.2299972101
N               145.2856578853       59.0300336603      117.7840736254
C               146.1624123949       58.3858951881      116.8317180068
C               147.5019880117       59.1135279026      116.7602376538
O               147.5966097587       60.3165087408      116.9556424082
C               145.5572309403       58.4206613116      115.4150310688
C               144.3062220432       57.5563471830      115.2662993490
C               144.5811350968       56.1096938607      115.6664481018
C               143.6250861856       55.1158294627      115.0215413464
N               143.8833700495       53.7712945179      115.6003940621
H               145.3425785240       60.0386170960      117.8186214828
H               146.3245028070       57.3548286200      117.1476939388
H               145.3258251657       59.4590597951      115.1717064163
H               146.3196153664       58.0677733119      114.7184188571
H               143.4943689539       57.9615559130      115.8737999121
H               144.0027154568       57.5860456203      114.2212413285
H               145.5971320779       55.8513066006      115.3654183590
H               144.5143880418       56.0210076945      116.7517178685
H               142.5870181694       55.4021484798      115.1997164375
H               143.8072714461       55.0787461961      113.9475652074
H               143.5334629208       53.0198421959      114.9976952020
H               144.9357628912       53.6566623090      115.7630570843
H               143.4426852810       53.6933512263      116.5228561914
N               148.5268809506       58.3290798913      116.3993748412
C               149.8345307307       58.8826082834      116.0935372605
C               149.8090806327       59.4787729134      114.6766570782
O               149.7441240918       58.7624492946      113.6801624689
C               150.9307092367       57.8223615762      116.1694484248
C               152.2952813136       58.4899051434      115.9780524206
C               153.4544618558       57.5060742422      115.9776642905
O               154.1979688752       57.3778405324      115.0092105303
N               153.6058888004       56.8051374979      117.1023091198
H               148.3855308789       57.3323116963      116.2783231726
H               150.0312017874       59.6898948759      116.8059966135
H               150.8798581562       57.3220762826      117.1355201731
H               150.7547480096       57.0795807949      115.3885234305
H               152.3012642070       59.0218518758      115.0260647737
H               152.4498834847       59.2065885801      116.7860344029
H               153.1393521347       57.1096051554      117.9465368986
H               154.3964632492       56.1846331164      117.1794325739
N               149.8675514915       60.8078163335      114.6295375817
C               149.8777274268       61.5624472251      113.3912454589
C               151.1862523086       62.3492993599      113.3352818869
O               151.4095272622       63.2671212241      114.1145800875
C               148.6855275026       62.5301009906      113.2986205205
C               147.3525550066       61.7853223364      113.4404979651
C               148.7727628197       63.3196444614      111.9938643875
C               147.1298625018       60.6757806738      112.4168593598
H               149.9209226475       61.3300617551      115.4969099872
H               149.8380942287       60.8534723944      112.5638891685
H               148.7728069089       63.2353863468      114.1330548576
H               147.2953747345       61.3615434132      114.4461386842
H               146.5493087552       62.5175546701      113.3450455204
H               147.8992613323       63.9577653185      111.8877344029
H               149.6619726310       63.9460441771      111.9892154961
H               148.8290617402       62.6506860808      111.1399002638
H               146.1195689829       60.2900338249      112.5126050499
H               147.2530607896       61.0411213058      111.4014434507
H               147.8175984842       59.8487300515      112.5689130656
N               152.0534511353       61.9531914016      112.3996157870
C               153.2978080053       62.6447040657      112.1454416056
C               153.7134096559       62.3412973351      110.7092597053
O               153.0673890670       61.5735165372      110.0008911482
C               154.3837761971       62.2580461839      113.1635429523
C               154.6601125958       60.7728001683      113.1013730723
O               154.9222338044       60.2012228187      112.0420281103
N               154.5891568663       60.1318896058      114.2646143262
H               151.8438945344       61.1897800450      111.7605186227
H               153.1286417354       63.7257139547      112.2308707507
H               155.2931489277       62.8145249859      112.9293928929
H               154.0498006128       62.5468829843      114.1599433956
H               154.6676881272       59.1167791815      114.3250561286
H               154.4212462216       60.6529022894      115.1099571495
N               153.7931603852       58.5467371076      109.8948745980
C               152.5688993236       57.7844160021      109.8030989731
C               151.7527769568       58.1925356562      108.5719762358
O               151.1115819371       57.3637102235      107.9385320301
C               151.6971592031       57.8200524072      111.0630133224
O               151.2833879025       59.1382189757      111.3651458100
C               152.4202727351       57.2014310265      112.2551144958
H               153.9746001824       59.1506343387      110.6872561629
H               152.8497780088       56.7346289457      109.6328796589
H               150.8090477002       57.2158024649      110.8139032763
H               150.6685593093       59.0379942670      112.1251457365
H               151.7250547921       57.1050907581      113.0843499718
H               152.8115587427       56.2243778112      111.9907929287
H               153.2418913345       57.8471054953      112.5526913115
N               151.7834330299       59.4906956828      108.2674161812
C               151.0871194298       60.0041854531      107.1064274365
C               151.6869903499       59.4343195257      105.8173012319
O               150.9888690776       59.1023307640      104.8708862508
C               151.1621107386       61.5297342227      107.0784912243
C               150.3883349761       62.2026757066      108.2204941192
C               150.7367265293       63.6903066229      108.2573594019
C               148.8814754252       62.0180615061      108.0765007718
H               152.2907058284       60.1399234502      108.8535853531
H               150.0450597992       59.6607614271      107.1378219319
H               152.2174225196       61.8114820868      107.1440471823
H               150.7741309719       61.8727742277      106.1182497630
H               150.7139941408       61.7479379382      109.1614728434
H               150.1891869654       64.1862313209      109.0545625035
H               151.8023130445       63.8249707649      108.4374543894
H               150.4806611685       64.1579503267      107.3095974199
H               148.3656245425       62.5004361311      108.9017456162
H               148.5287856288       62.4598017936      107.1487618124
H               148.6111394537       60.9668878304      108.0735728407
N               143.4278763015       60.6216060630      105.8145797759
C               143.6847580594       60.0199226326      107.1112009718
C               143.2948296503       61.0189667493      108.2102164341
O               142.4421190409       60.7720269210      109.0573075368
C               145.1560508772       59.6363131864      107.2620740492
C               145.6228248233       58.5639168726      106.2780638629
C               147.1423892124       58.4616332918      106.2985256677
O               147.8393287444       59.0026289026      107.1410556123
N               147.6731300309       57.7555645119      105.2871844261
H               144.1904892862       60.6667207978      105.1472013254
H               143.0350630458       59.1421317874      107.2330411394
H               145.7693060502       60.5244389890      107.1079479926
H               145.3202413066       59.2907933580      108.2835568194
H               145.1936840650       57.5924574941      106.5284697603
H               145.3177220198       58.8256182419      105.2642786652
H               147.0978778608       57.2815827302      104.6141122316
H               148.6763725145       57.6607056891      105.2355910378
N               143.9850357105       62.1592774660      108.1955439559
C               143.7368508243       63.1903237475      109.1837946653
C               142.2367663941       63.3515657233      109.4215284027
O               141.7475116694       63.3510646422      110.5511855286
C               144.3468457994       64.5298354672      108.7343792677
C               143.8397188417       65.6744298357      109.6125624996
C               145.8710596358       64.4434463136      108.7714944952
H               144.6108894442       62.3630800840      107.4244375204
H               144.1744865964       62.8779024481      110.1435356143
H               144.0106065245       64.7034263712      107.7075296615
H               144.4409659688       66.5631553060      109.4420408768
H               142.8006843021       65.9007937730      109.3815976364
H               143.9032462844       65.3966989684      110.6618560983
H               146.3070269811       65.3820109142      108.4409563997
H               146.2080709777       64.2376272396      109.7841980611
H               146.2266596788       63.6514839107      108.1185435736
N               141.5298124976       63.6013839599      108.3224228670
C               140.1606388342       64.0446790428      108.3908201837
C               139.2042126292       62.9603015625      108.8631208004
O               138.2488360803       63.2452987352      109.5830463363
C               139.7413346542       64.6099508604      107.0427945931
C               140.4152295207       66.0151034118      106.7988250993
O               140.6872444207       66.3052712802      105.6240742973
O               140.5884777826       66.7340753177      107.7978723394
H               141.9704233941       63.5667596079      107.4114810406
H               140.1001041975       64.8592990706      109.1305298931
H               140.0225330687       63.9299667352      106.2376888422
H               138.6576676259       64.7462991359      107.0177122013
N               139.4603405204       61.7177478771      108.4411104722
C               138.5972728077       60.6294050625      108.8297981169
C               138.6930338227       60.3095896156      110.3258459310
O               137.8464588264       59.6022421385      110.8591730263
C               138.8456960655       59.3403608804      108.0152481702
O               137.6973462420       58.5254038432      108.0395730250
C               140.0760140948       58.5884395184      108.5149781749
H               140.2399098985       61.5277922147      107.8207767858
H               137.5517973195       60.9352527211      108.6739558404
H               138.9839294195       59.6179485402      106.9630703378
H               137.4667996925       58.3576628799      108.9650120408
H               140.2756899253       57.7454773382      107.8598585471
H               140.9331330668       59.2544131887      108.5350192016
H               139.8949147541       58.2125142064      109.5209378429
N               139.7398880407       60.8373070030      110.9647174851
C               139.9217298439       60.7441418039      112.3964420974
C               139.3243447291       61.9818337657      113.0672732009
O               138.6292567673       61.9029367339      114.0790623804
C               141.4088517337       60.5947146501      112.7098737405
C               142.0167836972       59.3418913053      112.0659392031
C               143.5391836700       59.4488042319      112.1151560534
C               141.5197598931       58.0664816730      112.7405143216
H               140.4696046015       61.3056522279      110.4439992501
H               139.3441443492       59.8844205841      112.7594211201
H               141.9192951297       61.4799279835      112.3235271486
H               141.5328920465       60.5591191085      113.7928436001
H               141.7194261388       59.3204289931      111.0143122629
H               143.9990432464       58.5412942929      111.7341749291
H               143.8602917293       60.2788090097      111.4910664456
H               143.8722043577       59.6257389000      113.1337015020
H               141.9685279752       57.1954510371      112.2703504021
H               141.7637371004       58.0764907893      113.7987140892
H               140.4383358925       57.9738696742      112.6572859265
N               139.5811834035       63.1497562142      112.4730838163
C               138.9518778782       64.3702389155      112.9370314828
C               137.4658999750       64.1019602520      113.1959072040
O               136.9037522125       64.4755724930      114.2216141116
C               139.0981305296       65.4918646200      111.9030703774
C               138.4128160033       66.7768522959      112.3829402730
C               138.1121481572       67.7685498276      111.2575346248
N               139.2462310614       68.6240949981      110.9676832441
C               139.5416730493       69.1792140469      109.7961886834
N               138.8590432374       68.8959207948      108.6826395235
N               140.5014938249       70.0973370203      109.7616023755
H               140.2218614573       63.1988012576      111.6855708760
H               139.3897131027       64.6770607504      113.8982571806
H               140.1595058334       65.6602365840      111.7176481563
H               138.6370348046       65.1465809526      110.9764953833
H               137.4666219679       66.5066283208      112.8523192680
H               139.0213948784       67.2578795034      113.1497293832
H               137.8346405323       67.2066852550      110.3653881356
H               137.2623035973       68.3925532293      111.5535660275
H               139.7388931605       68.9918103878      111.7736421978
H               138.3396770906       68.0325916845      108.6389238458
H               139.2772379202       69.1639002672      107.8045640893
H               140.8891217918       70.4487528895      110.6348022585
H               140.7712599426       70.5226113285      108.8899817972
N               136.8163439634       63.5253758290      112.1807284474
C               135.3982387761       63.2565954542      112.2559693866
C               135.0144768405       62.4833904517      113.5151731720
O               133.9900380786       62.7692260753      114.1257850295
C               134.9454111459       62.4874626891      110.9963214728
O               135.7595247078       61.3881754673      110.6945473987
H               137.2962079133       63.2299674596      111.3335579554
H               134.8447007716       64.2050862210      112.3053090620
H               133.8959415480       62.1982037568      111.1233843661
H               135.0410011621       63.1511584607      110.1333739200
H               135.6166387676       60.6557968706      111.3056127966
N               135.8022627484       61.4641365676      113.8595554348
C               135.5233465716       60.6873592012      115.0495619247
C               135.4199728969       61.6025205855      116.2615994087
O               134.5121719624       61.5028794959      117.0816691904
C               136.6233654663       59.6669775140      115.2941782163
C               136.7169196481       58.6072524332      114.1321167777
O               135.6625268636       58.3462390212      113.5302198716
O               137.8462873594       58.1269211776      113.9392403936
H               136.6756475306       61.2785558781      113.3907100591
H               134.5689188415       60.1595382203      114.9193503216
H               137.5963681353       60.1489545915      115.3939455992
H               136.4198105322       59.1094062604      116.2126063846
N               136.4114456215       62.4851973011      116.3705844351
C               136.5459967140       63.3671097510      117.5116551959
C               135.3341568926       64.2977799255      117.5968012348
O               134.7380188302       64.4914124356      118.6518394494
C               137.8443315140       64.1601020818      117.4046033526
C               139.1022118227       63.2836262384      117.4753670728
C               140.3281621057       64.1256269184      117.1319965709
C               139.2732239583       62.6431622608      118.8491162846
H               137.1253861871       62.5193595942      115.6563790028
H               136.5323278017       62.7613468105      118.4279898490
H               137.8260861398       64.6900805803      116.4502135791
H               137.8631220975       64.9105474598      118.1973836356
H               139.0164039633       62.4815746818      116.7319429857
H               141.2243253819       63.5131884765      117.1662536434
H               140.2314959771       64.5462014381      116.1345961454
H               140.4335433986       64.9434467493      117.8410061526
H               140.1237880500       61.9661886846      118.8490921458
H               139.4215497712       63.4071394054      119.6087064675
H               138.4006209402       62.0543165454      119.1199741066
H               146.1032817401       68.9322625509      115.1000205557
H               144.2438406757       70.3928614631      112.7139481295
H               148.6089239916       71.5714364792      111.7932301585
H               147.0611167042       70.1149566785      109.1078166371
H               152.2686930763       67.5426638438      116.6504679341
H               154.0933623663       65.5309994959      118.5993851546
H               147.8971958542       63.6052143248      120.1246777046
H               150.6334265255       61.5018700572      119.4761573482
H               144.4302012249       58.8322028461      117.5864455121
H               154.5295408079       62.7714859890      110.3234259784
H               154.4970217980       57.9858635880      109.8949555292
H               152.6773360712       59.3246805895      105.7324799143
H               142.7784092418       60.1622874400      105.3936059753
H               135.0068726403       64.7687386281      116.7776047268
