209
Properties=species:S:1:pos:R:3 pbc="F F F"
N      19.24400000      25.23500000      23.22900000 
C      18.48600000      25.21300000      22.63900000 
C      19.18900000      25.44400000      21.09000000 
O      19.20200000      24.55700000      20.22100000 
C      17.10700000      25.76900000      22.64100000 
C      16.08300000      24.97000000      23.46400000 
C      15.51400000      23.78100000      23.10400000 
C      14.46700000      23.79400000      22.04100000 
N      14.01200000      22.56200000      21.10600000 
H      18.76000000      26.24600000      24.37800000 
H      18.37200000      23.90100000      22.48100000 
H      17.16600000      26.69800000      22.67500000 
H      16.60900000      25.67700000      21.47800000 
H      16.66900000      24.91800000      24.38500000 
H      15.39100000      25.54000000      23.64700000 
H      16.51700000      23.13600000      22.44300000 
H      15.36200000      23.09600000      23.74200000 
H      13.60800000      24.06700000      22.61800000 
H      14.71000000      24.68000000      21.39100000 
H      13.52400000      22.75400000      20.80200000 
H      15.10300000      22.40000000      20.75500000 
H      14.04600000      21.84200000      21.85700000 
N      19.66100000      26.55600000      21.07900000 
C      20.15300000      26.88100000      19.93300000 
C      21.19500000      26.47200000      19.52800000 
O      21.93200000      25.76400000      18.36300000 
C      20.71700000      28.60800000      20.02600000 
C      19.72000000      29.39400000      19.19800000 
C      19.46500000      29.17700000      17.60700000 
C      18.08900000      28.80700000      19.94700000 
H      19.48500000      27.30400000      21.91900000 
H      19.78900000      26.87000000      19.08300000 
H      20.62100000      28.82800000      20.78500000 
H      21.39400000      28.74000000      19.43100000 
H      19.67800000      30.36700000      19.38400000 
H      18.84000000      29.72300000      17.22700000 
H      20.37400000      29.33600000      17.36400000 
H      19.21900000      28.14100000      17.49600000 
H      17.23800000      29.81900000      19.25400000 
H      17.83400000      28.19900000      19.60400000 
H      18.09000000      29.22800000      20.81800000 
N      22.41400000      25.95800000      20.85500000 
C      23.42600000      25.25000000      20.56300000 
C      23.26500000      23.56000000      19.89900000 
O      23.76100000      23.33800000      19.43200000 
C      24.36500000      25.07900000      21.80000000 
C      25.12000000      26.49700000      22.13900000 
C      25.40400000      25.94400000      23.48400000 
C      26.07300000      26.62600000      20.99500000 
H      22.01700000      26.34600000      21.65000000 
H      24.14600000      25.60300000      19.68800000 
H      23.59700000      24.85500000      22.71300000 
H      25.00200000      24.31900000      21.63900000 
H      24.37400000      27.11700000      22.22200000 
H      26.60500000      27.19700000      23.72300000 
H      25.16800000      25.94700000      24.13700000 
H      26.58000000      25.12400000      23.26600000 
H      26.65500000      27.60500000      21.33000000 
H      26.70800000      25.96500000      20.83500000 
H      25.54500000      27.02000000      20.04600000 
N      22.06200000      23.24200000      20.56800000 
C      21.66700000      21.94500000      20.18800000 
C      21.37500000      21.61900000      18.67200000 
O      21.46400000      21.02200000      18.12600000 
C      20.56900000      21.24600000      21.09800000 
C      20.41700000      19.92400000      20.94700000 
C      21.64000000      19.05900000      20.98400000 
C      21.61900000      17.69800000      20.26400000 
N      22.17400000      18.04200000      19.08300000 
H      21.49200000      23.75200000      21.28100000 
H      22.68300000      21.22100000      20.18600000 
H      21.00500000      21.43400000      22.16500000 
H      19.79500000      21.82500000      21.04000000 
H      19.59500000      19.53300000      21.45000000 
H      20.09600000      19.63800000      19.84600000 
H      22.45400000      19.53100000      21.20100000 
H      21.49900000      18.57600000      22.25400000 
H      22.44600000      17.05400000      20.87100000 
H      20.78000000      17.20300000      20.17600000 
H      22.07800000      17.43000000      18.56200000 
H      22.17000000      19.07500000      18.77300000 
H      23.51700000      18.19400000      19.06100000 
N      20.52100000      22.88900000      18.21500000 
C      20.24700000      22.71300000      16.93400000 
C      21.22300000      23.20100000      16.17900000 
O      21.46100000      22.51400000      15.01600000 
C      19.14800000      24.27500000      16.72900000 
C      17.55800000      23.66400000      17.70400000 
C      17.11200000      25.23900000      17.58300000 
C      16.08700000      24.76000000      18.55100000 
N      14.89500000      26.21300000      18.45500000 
H      20.27500000      23.60200000      19.02600000 
H      19.62200000      22.02000000      16.62900000 
H      19.71700000      25.09700000      17.29500000 
H      19.02600000      24.32900000      15.79200000 
H      17.31800000      23.22100000      16.93000000 
H      18.02800000      23.51600000      18.32900000 
H      17.64600000      25.86500000      18.23500000 
H      16.83000000      25.59800000      16.72400000 
H      15.07000000      24.27900000      17.83200000 
H      15.94200000      24.54800000      19.20800000 
H      14.21700000      26.06300000      19.15300000 
H      15.64800000      26.80100000      19.22700000 
H      14.87900000      26.62300000      17.93800000 
N      22.24000000      24.00400000      16.57300000 
C      23.45500000      24.17000000      15.73700000 
C      24.20900000      22.91900000      15.66600000 
O      24.58700000      22.62900000      14.70600000 
C      24.21300000      25.26000000      16.34900000 
H      22.06600000      24.51200000      17.31600000 
H      23.13500000      24.51400000      14.68800000 
H      25.20600000      25.52300000      15.76700000 
H      23.58700000      26.34400000      16.46300000 
H      24.57000000      24.99500000      17.53000000 
N      24.33600000      22.41000000      16.81900000 
C      25.42800000      21.05400000      17.15500000 
C      24.92300000      20.08900000      15.53000000 
O      25.60600000      19.79400000      15.18500000 
C      25.00000000      20.50400000      18.16500000 
C      25.52100000      19.13300000      18.44200000 
O      26.55900000      18.67400000      18.36600000 
O      24.64500000      18.23700000      19.07700000 
H      24.10100000      22.58800000      17.52000000 
H      26.28300000      21.47600000      16.61000000 
H      25.12200000      21.23900000      18.79600000 
H      23.91500000      20.44000000      18.11000000 
N      23.86200000      19.80800000      15.58000000 
C      23.42800000      19.11900000      14.63100000 
C      23.61200000      19.11100000      13.32500000 
O      23.56900000      18.37400000      12.49000000 
C      21.73100000      18.28700000      14.90500000 
C      20.83400000      19.21700000      14.51600000 
C      19.50300000      19.09700000      15.17100000 
O      19.28800000      18.02300000      15.68200000 
O      18.69600000      20.12500000      15.11900000 
H      22.90900000      20.17400000      16.33700000 
H      23.99500000      17.75700000      14.96400000 
H      21.62100000      17.44400000      14.47800000 
H      21.69700000      17.97900000      15.97300000 
H      21.20200000      20.38600000      14.91500000 
H      20.74500000      19.41700000      13.60500000 
N      23.64400000      19.76300000      12.59000000 
C      24.22200000      20.56900000      11.85100000 
C      25.69900000      21.22700000      11.85700000 
O      26.42200000      20.40600000      10.83500000 
H      23.69800000      21.26900000      14.02500000 
H      23.86100000      20.05100000      10.94900000 
H      23.48400000      21.74200000      11.35900000 
N      26.04900000      21.73800000      12.29500000 
C      27.46500000      22.52300000      12.23200000 
C      28.31300000      20.88600000      12.74500000 
O      29.57600000      21.30900000      11.78100000 
C      27.78300000      23.16800000      13.68900000 
C      27.02000000      24.57100000      13.78800000 
C      27.73200000      25.30900000      15.08600000 
C      27.61400000      25.23500000      12.36800000 
H      25.44700000      22.35000000      13.24700000 
H      27.63400000      22.83000000      11.59700000 
H      27.36200000      22.64300000      14.62800000 
H      28.78500000      23.31400000      13.73600000 
H      26.11600000      24.46900000      13.66000000 
H      27.14500000      26.33200000      15.00300000 
H      27.30000000      24.69600000      15.82500000 
H      28.63600000      25.39700000      14.93900000 
H      27.17400000      26.54400000      12.60000000 
H      28.58600000      25.38800000      12.43300000 
H      27.21500000      24.96500000      11.60700000 
N      28.10000000      20.34500000      13.20800000 
C      29.23600000      19.27200000      13.50600000 
C      29.45800000      18.53200000      12.17500000 
O      30.71500000      18.23900000      11.85600000 
C      28.56100000      17.96800000      14.53400000 
H      27.36800000      20.11900000      13.83900000 
H      30.03800000      19.52600000      13.81600000 
H      29.43500000      17.31600000      14.46700000 
H      28.50200000      18.46700000      15.36900000 
H      27.87200000      17.63900000      13.97500000 
N      28.19500000      18.45300000      11.05400000 
C      28.74200000      17.95800000       9.87600000 
C      29.69700000      18.35100000       9.00600000 
O      30.37000000      17.99100000       8.62000000 
C      27.29400000      17.51300000       9.20700000 
O      27.90300000      17.14700000       8.26900000 
H      27.75800000      18.87500000      11.43800000 
H      29.07200000      16.71000000      10.16900000 
H      26.70600000      17.29300000       9.86300000 
H      26.97400000      18.79500000       9.15300000 
H      26.47700000      17.09400000       7.38500000 
N      29.60500000      19.96700000       9.22700000 
C      30.34500000      20.48800000       8.23600000 
C      31.37700000      21.32200000       9.05100000 
O      32.22200000      22.47000000       8.19700000 
C      29.68400000      21.68100000       7.37800000 
C      28.83200000      22.69900000       7.83600000 
C      28.12500000      23.42700000       6.67400000 
C      28.11600000      22.33800000       9.01300000 
H      29.03800000      20.31700000       9.79800000 
H      31.05300000      19.95800000       7.62600000 
H      30.37100000      21.80600000       6.45100000 
H      28.70100000      20.67600000       6.79900000 
H      29.75500000      23.38500000       8.25200000 
H      27.77000000      24.26300000       6.95700000 
H      28.93200000      23.66100000       5.87600000 
H      27.55500000      22.88000000       6.26200000 
H      27.32700000      23.28400000       9.18900000 
H      27.26500000      21.66200000       8.59800000 
H      28.28900000      22.20100000       9.58900000 
H      19.40737434      24.40611388      23.53925252 
H      31.49815295      21.15025410      10.02866319 
