379
Properties=species:S:1:pos:R:3 pbc="F F F"
N      38.66500000      40.52900000      77.46100000 
C      37.61000000      40.20200000      78.39700000 
C      37.99700000      38.76800000      78.90400000 
O      37.31800000      37.78900000      78.45900000 
C      36.22800000      40.18900000      77.73700000 
O      36.19100000      39.46600000      76.56900000 
H      38.92000000      39.88600000      76.71400000 
H      37.64100000      40.83800000      79.17200000 
H      35.55600000      39.90100000      78.41600000 
H      36.04400000      41.23000000      77.43600000 
H      36.50900000      38.55700000      76.71600000 
N      38.90400000      38.73000000      79.76300000 
C      39.38800000      37.44900000      80.31300000 
C      39.80000000      37.69200000      81.80400000 
O      40.05000000      38.81600000      82.19900000 
H      39.38700000      39.57300000      80.07700000 
H      38.67800000      36.77900000      80.20900000 
H      40.31500000      37.16100000      79.81300000 
N      39.80900000      36.62800000      82.52900000 
C      40.02500000      36.69500000      83.90700000 
C      41.53900000      36.92800000      84.27100000 
O      41.80200000      37.06400000      85.48700000 
C      39.45300000      35.42800000      84.65200000 
H      39.47900000      35.75100000      82.15500000 
H      39.55500000      37.60300000      84.34300000 
H      39.71200000      35.49000000      85.65500000 
H      38.41700000      35.45000000      84.50500000 
H      39.92700000      34.59700000      84.21400000 
N      42.37700000      36.79700000      83.37300000 
C      43.77600000      36.80500000      83.54600000 
C      44.38100000      38.22000000      83.39000000 
O      43.69800000      39.15300000      82.90400000 
C      44.48400000      35.94100000      82.59200000 
C      44.23900000      36.12300000      81.12400000 
C      45.25900000      36.75800000      80.27400000 
C      43.12800000      35.62100000      80.53200000 
C      45.05200000      36.79200000      79.00300000 
C      42.90000000      35.69700000      79.16800000 
C      43.92400000      36.22200000      78.36100000 
O      43.79800000      36.20000000      77.01300000 
H      42.03100000      36.69200000      82.35000000 
H      44.00600000      36.53900000      84.54300000 
H      45.59200000      35.94500000      82.75700000 
H      44.20600000      34.90100000      82.81100000 
H      46.10400000      37.07900000      80.74300000 
H      42.35100000      35.13200000      81.10700000 
H      45.81400000      37.19900000      78.31900000 
H      42.01100000      35.31500000      78.70400000 
H      43.05700000      35.88300000      76.66800000 
N      50.15300000      35.62300000      78.70100000 
C      49.25700000      35.53600000      79.89600000 
C      50.17200000      35.25500000      81.07300000 
O      50.94500000      34.28400000      81.04500000 
C      48.26200000      34.50500000      79.70400000 
C      47.52200000      34.21700000      81.00000000 
C      46.25700000      33.43200000      80.81800000 
O      45.88200000      33.07600000      79.74600000 
O      45.65400000      33.16800000      81.95700000 
H      50.40500000      34.77000000      78.27100000 
H      48.86800000      36.50100000      79.97600000 
H      47.61100000      34.74700000      78.95900000 
H      48.76900000      33.52900000      79.41000000 
H      48.12100000      33.76100000      81.70000000 
H      47.23400000      35.24000000      81.48300000 
N      52.73500000      32.41900000      79.73700000 
C      52.46400000      31.56900000      78.66900000 
C      52.26400000      32.46100000      77.38400000 
O      51.29100000      33.23200000      77.44500000 
C      51.25100000      30.66400000      78.91600000 
C      51.01600000      29.56200000      77.90500000 
C      49.77600000      28.72600000      78.33400000 
N      49.48200000      28.67600000      79.69700000 
C      50.23200000      27.96700000      80.55100000 
N      49.72200000      27.83000000      81.82000000 
N      51.41700000      27.44700000      80.20100000 
H      52.07700000      33.15600000      79.90100000 
H      53.35400000      30.94100000      78.42300000 
H      51.48700000      30.24700000      79.87000000 
H      50.36300000      31.36700000      79.01800000 
H      50.80200000      30.00900000      76.94000000 
H      51.87600000      28.96700000      77.82100000 
H      48.87300000      29.20200000      77.88100000 
H      49.86400000      27.79400000      77.91600000 
H      48.65500000      29.07800000      80.04900000 
H      48.89100000      28.10900000      82.12800000 
H      50.36900000      27.19300000      82.49600000 
H      51.73500000      27.56400000      79.42400000 
H      51.84800000      26.88700000      80.95400000 
N      50.51500000      33.66900000      74.41000000 
C      49.29900000      33.27900000      74.01400000 
C      49.04100000      33.63200000      72.49000000 
O      48.51100000      32.81400000      71.75400000 
C      48.17500000      33.86300000      74.79000000 
C      46.79900000      33.35100000      74.33400000 
C      48.32000000      33.47200000      76.26000000 
H      50.73000000      34.68600000      74.61100000 
H      49.19600000      32.19300000      74.02000000 
H      48.14800000      34.93900000      74.75400000 
H      45.97200000      33.75000000      74.94600000 
H      46.59300000      33.61700000      73.31000000 
H      46.74900000      32.27300000      74.41600000 
H      47.50200000      33.76700000      76.86600000 
H      48.42600000      32.39000000      76.34600000 
H      49.21800000      33.89300000      76.67000000 
N      49.41900000      34.83000000      72.09800000 
C      49.25600000      35.26900000      70.77400000 
C      50.46300000      35.98000000      70.34000000 
O      50.91700000      36.91000000      70.98500000 
C      47.97000000      36.04300000      70.50100000 
C      47.48400000      36.01700000      69.17400000 
C      47.45500000      37.16900000      68.29900000 
C      47.01400000      34.77600000      68.64200000 
C      46.99700000      37.03600000      67.03200000 
C      46.54200000      34.66200000      67.34600000 
C      46.53600000      35.87000000      66.52900000 
O      46.02900000      35.71700000      65.24500000 
H      49.87900000      35.53200000      72.80600000 
H      49.15000000      34.36400000      70.20900000 
H      47.22500000      35.65300000      71.21100000 
H      48.16200000      37.09900000      70.87400000 
H      47.81300000      38.08800000      68.71100000 
H      47.03400000      33.94000000      69.25000000 
H      46.94900000      37.89900000      66.40200000 
H      46.18300000      33.79700000      66.95800000 
H      45.89600000      36.56800000      64.78400000 
N      42.21600000      42.14100000      67.60100000 
C      42.55100000      40.98500000      68.29500000 
C      41.82700000      41.00500000      69.65500000 
O      42.04800000      41.97900000      70.35300000 
C      44.08600000      40.81000000      68.35500000 
C      44.61800000      40.49300000      67.00500000 
C      44.43000000      39.72400000      69.43100000 
C      46.12500000      40.49800000      66.87800000 
H      42.49500000      43.01200000      67.90000000 
H      42.14800000      40.08300000      67.72000000 
H      44.46900000      41.72200000      68.68000000 
H      44.26700000      39.46300000      66.74600000 
H      44.17300000      41.15600000      66.26700000 
H      45.50400000      39.62000000      69.43600000 
H      44.13400000      39.98100000      70.34000000 
H      44.00600000      38.80400000      69.13100000 
H      46.44600000      40.33100000      65.92800000 
H      46.47000000      41.46400000      67.16200000 
H      46.57400000      39.82100000      67.53800000 
N      40.98900000      40.04900000      69.83200000 
C      40.13600000      40.10300000      71.00300000 
C      40.24900000      38.74900000      71.76900000 
O      40.37700000      37.72200000      71.09300000 
C      38.71100000      40.25400000      70.56700000 
O      38.54400000      41.29300000      69.59400000 
H      40.92100000      39.30500000      69.22200000 
H      40.43100000      40.88900000      71.62500000 
H      38.30600000      39.37200000      70.10800000 
H      38.10000000      40.48500000      71.41900000 
H      38.49700000      42.20800000      69.98300000 
N      40.23000000      38.90000000      73.03100000 
C      40.47300000      37.63800000      73.83100000 
C      39.36900000      37.51900000      74.83900000 
O      38.98100000      38.48000000      75.56900000 
C      41.80800000      37.73300000      74.53500000 
C      42.01100000      39.03300000      75.37100000 
C      42.89700000      37.68500000      73.43400000 
C      43.42500000      39.21500000      75.88000000 
H      40.21800000      39.74400000      73.47300000 
H      40.44500000      36.87300000      73.26800000 
H      41.92000000      36.87600000      75.18900000 
H      41.75700000      39.84600000      74.72000000 
H      41.30000000      38.97900000      76.18900000 
H      43.87500000      37.52300000      73.84100000 
H      42.65700000      36.82200000      72.80600000 
H      42.90400000      38.51600000      72.84400000 
H      43.40700000      40.16100000      76.50000000 
H      43.73600000      38.48000000      76.51600000 
H      44.14200000      39.37700000      75.10900000 
N      38.81700000      36.37100000      74.90300000 
C      37.81300000      36.01100000      75.88800000 
C      38.27600000      34.79200000      76.67000000 
O      39.09900000      34.06500000      76.21000000 
C      36.38400000      35.83600000      75.35600000 
C      36.02500000      34.47300000      74.82100000 
C      35.65700000      33.37300000      75.59600000 
C      35.89800000      34.02900000      73.45200000 
N      35.33400000      32.33400000      74.80400000 
C      35.45400000      32.66400000      73.53600000 
C      36.18700000      34.67300000      72.19400000 
C      35.29900000      31.93500000      72.25300000 
C      36.03000000      33.83400000      71.05100000 
C      35.63900000      32.58800000      71.13800000 
H      39.12800000      35.60900000      74.29100000 
H      37.75200000      36.82300000      76.59700000 
H      35.68000000      36.11700000      76.11900000 
H      36.27200000      36.55000000      74.52800000 
H      35.63000000      33.31300000      76.60700000 
H      35.18900000      31.42700000      75.06500000 
H      36.50600000      35.63900000      72.15400000 
H      35.02900000      30.89100000      72.37500000 
H      36.27600000      34.33800000      70.09200000 
H      35.54300000      31.98900000      70.21900000 
N      37.62500000      34.61300000      77.77500000 
C      37.72800000      33.37700000      78.52200000 
C      38.37000000      33.49800000      79.90700000 
O      38.49200000      34.60000000      80.45100000 
H      37.02100000      35.33400000      78.18600000 
H      36.81400000      32.89300000      78.63300000 
H      38.41200000      32.70400000      77.94200000 
N      38.64600000      32.37900000      80.41500000 
C      39.14400000      32.28400000      81.84800000 
C      40.58500000      32.20500000      81.80300000 
O      41.33500000      32.39900000      80.72400000 
C      38.56500000      31.07100000      82.43800000 
O      39.17400000      29.95400000      81.76700000 
C      37.09300000      30.95000000      82.38600000 
H      38.60300000      31.55500000      79.94900000 
H      38.84200000      33.17100000      82.36800000 
H      38.87000000      31.01600000      83.50100000 
H      38.74200000      29.12600000      81.87100000 
H      36.69900000      30.16200000      82.90900000 
H      36.62900000      31.87500000      82.72700000 
H      36.75900000      30.85300000      81.28800000 
N      41.27900000      31.91400000      82.90000000 
C      42.63200000      31.71800000      83.06100000 
C      43.02400000      30.33100000      82.61400000 
O      44.21500000      29.94400000      82.64900000 
C      42.99800000      31.84000000      84.47900000 
O      42.22300000      30.96100000      85.22900000 
C      42.83600000      33.31400000      84.99700000 
H      40.68300000      31.78000000      83.74800000 
H      43.21300000      32.37900000      82.42900000 
H      44.09200000      31.58500000      84.61000000 
H      42.39900000      30.91100000      86.14600000 
H      43.03300000      33.31800000      86.07400000 
H      43.46300000      33.96500000      84.50600000 
H      41.77300000      33.57100000      84.83900000 
N      42.04600000      29.46200000      82.15000000 
C      42.35400000      28.18600000      81.64300000 
C      42.32100000      28.11300000      80.18700000 
O      43.14700000      27.37900000      79.57000000 
C      41.40400000      27.15000000      82.23500000 
C      41.93800000      26.45000000      83.46300000 
C      43.06100000      25.46400000      83.10700000 
C      42.35800000      27.39100000      84.49500000 
H      41.11200000      29.76900000      82.21900000 
H      43.32800000      27.95400000      81.94400000 
H      40.44700000      27.61800000      82.42400000 
H      41.17500000      26.38600000      81.45200000 
H      41.11800000      25.85100000      83.85300000 
H      43.43200000      25.00800000      83.93700000 
H      42.70700000      24.72900000      82.39600000 
H      43.85000000      26.01500000      82.62500000 
H      42.66300000      26.91400000      85.41400000 
H      43.21500000      27.99900000      84.16800000 
H      41.58400000      28.12600000      84.76700000 
N      41.35600000      28.80400000      79.54200000 
C      41.06200000      28.56600000      78.11700000 
C      41.02000000      29.84100000      77.43400000 
O      39.98700000      30.45100000      77.21700000 
C      39.79300000      27.74600000      77.98700000 
C      39.70400000      26.56200000      78.83300000 
C      38.76400000      26.45000000      79.84100000 
C      40.61000000      25.56400000      78.70400000 
C      38.72700000      25.35300000      80.63100000 
C      40.61900000      24.43900000      79.51500000 
C      39.62800000      24.34000000      80.49700000 
O      39.57600000      23.24200000      81.35900000 
H      40.72600000      29.32800000      80.04700000 
H      41.88000000      27.94700000      77.76400000 
H      38.95200000      28.45800000      78.24000000 
H      39.66300000      27.52900000      76.93400000 
H      38.03700000      27.24400000      79.96100000 
H      41.43900000      25.61200000      77.92100000 
H      37.95800000      25.24000000      81.42400000 
H      41.35300000      23.63200000      79.39800000 
H      40.27400000      22.61100000      81.20800000 
N      42.19000000      30.34100000      76.95900000 
C      42.19300000      31.56500000      76.21600000 
C      41.45100000      31.39600000      74.91600000 
O      41.73000000      30.35500000      74.18900000 
C      43.71300000      31.93300000      75.92500000 
C      44.43200000      30.95000000      76.90000000 
C      43.49400000      29.81800000      77.06800000 
H      41.72500000      32.37400000      76.75800000 
H      43.90700000      31.56700000      74.93600000 
H      43.89800000      32.90000000      76.06000000 
H      45.39700000      30.70300000      76.54800000 
H      44.51300000      31.48800000      77.89500000 
H      43.67400000      29.04600000      76.25000000 
H      43.64100000      29.25500000      78.00600000 
N      40.61200000      32.34400000      74.48500000 
C      39.92600000      32.31600000      73.29100000 
C      40.25100000      33.51200000      72.54400000 
O      39.86000000      34.67700000      72.95200000 
C      38.43900000      32.17400000      73.52900000 
C      38.07900000      30.95000000      74.35500000 
C      37.34000000      29.92000000      73.65600000 
O      36.24300000      29.39800000      74.13900000 
N      37.75400000      29.46600000      72.47200000 
H      40.32400000      33.01600000      75.18900000 
H      40.31700000      31.39700000      72.72400000 
H      38.15400000      33.02500000      74.02400000 
H      37.93700000      32.13600000      72.55100000 
H      39.02200000      30.45900000      74.73400000 
H      37.54700000      31.21700000      75.18700000 
H      38.59900000      29.86000000      72.05300000 
H      37.31400000      28.80800000      71.97100000 
N      41.11100000      33.52500000      71.52100000 
C      41.64500000      34.56700000      70.84000000 
C      41.09400000      34.65400000      69.45200000 
O      41.19000000      33.65900000      68.70300000 
C      43.19600000      34.42100000      70.75700000 
C      43.79700000      35.73700000      70.10200000 
C      43.83600000      34.13600000      72.09800000 
H      41.39000000      32.50500000      71.20400000 
H      41.38500000      35.47800000      71.41300000 
H      43.39900000      33.62300000      70.11100000 
H      44.84100000      35.61600000      70.07200000 
H      43.38900000      35.91200000      69.16500000 
H      43.57700000      36.56800000      70.79000000 
H      44.89000000      34.12900000      72.02400000 
H      43.56600000      34.92200000      72.82500000 
H      43.42500000      33.19000000      72.52100000 
N      40.63000000      35.78900000      69.02900000 
C      40.14300000      35.96800000      67.66200000 
C      40.89500000      37.13000000      67.11700000 
O      41.07000000      38.24500000      67.79200000 
C      38.64000000      36.17800000      67.64700000 
C      38.10300000      37.24300000      68.51500000 
C      36.62300000      37.39700000      68.48800000 
O      36.04400000      37.01300000      67.41700000 
O      36.05300000      37.98900000      69.38800000 
H      40.54600000      36.55600000      69.71000000 
H      40.42800000      35.11000000      67.15200000 
H      38.38400000      36.44700000      66.58800000 
H      38.19300000      35.22200000      67.78200000 
H      38.32100000      36.92900000      69.58100000 
H      38.57000000      38.14000000      68.40600000 
N      41.28800000      37.05500000      65.85200000 
C      42.02500000      38.09800000      65.10700000 
C      41.19000000      38.35500000      63.97500000 
O      41.22800000      37.60200000      62.87600000 
C      43.37600000      37.55200000      64.80100000 
C      44.32400000      38.36700000      64.04100000 
O      43.88400000      39.38800000      63.46700000 
O      45.49400000      38.01200000      64.04200000 
H      41.13700000      36.14600000      65.38700000 
H      42.05600000      38.89300000      65.72100000 
H      43.87400000      37.24400000      65.75700000 
H      43.29400000      36.56800000      64.26000000 
N      40.39000000      39.37100000      64.04000000 
C      39.53500000      39.87200000      62.95300000 
C      40.34800000      40.70700000      62.03300000 
O      40.98700000      41.58900000      62.51500000 
C      38.40900000      40.62300000      63.50900000 
C      37.54400000      39.86500000      64.56500000 
C      36.23200000      40.58300000      64.88400000 
C      35.53300000      39.85200000      65.97300000 
N      34.12400000      40.34500000      66.09400000 
H      40.47000000      39.99500000      64.81700000 
H      39.15100000      38.93900000      62.42300000 
H      38.72500000      41.52500000      63.89900000 
H      37.69000000      40.89600000      62.62900000 
H      37.29400000      38.89900000      64.14700000 
H      38.16100000      39.72700000      65.41500000 
H      36.52100000      41.59900000      65.26700000 
H      35.66700000      40.70800000      64.00000000 
H      35.43000000      38.79300000      65.70500000 
H      35.96500000      39.91200000      66.92300000 
H      33.62300000      39.89500000      66.76400000 
H      34.13500000      41.38600000      66.31200000 
H      33.61600000      40.26500000      65.20900000 
H      38.45361122      41.28599458      77.02250942 
H      45.32254129      38.39569608      83.67745589 
H      49.75155539      36.10991538      78.05931812 
H      50.15360621      35.85274713      81.87447366 
H      52.76464087      31.94266667      80.50003865 
H      52.89454198      32.37509274      76.61261375 
H      50.72562432      33.25790207      75.18242209 
H      50.93063436      35.70473505      69.50003136 
H      42.55001976      42.09780589      66.76639526 
H      40.34396330      40.51807837      61.05101613 
