369
Properties=species:S:1:pos:R:3 pbc="F F F"
N      44.82600000      49.02500000      64.89700000 
C      44.75100000      47.65100000      65.55600000 
C      44.16700000      48.05600000      66.67100000 
O      44.29500000      48.98300000      67.73100000 
C      46.45800000      47.52000000      66.08500000 
C      46.44000000      46.02900000      66.83800000 
C      45.88500000      44.79300000      66.33900000 
C      48.07700000      46.03800000      66.99100000 
H      45.04500000      49.76900000      65.39100000 
H      44.40400000      47.00400000      64.97000000 
H      46.83800000      47.30400000      64.95900000 
H      46.69300000      48.17600000      66.42100000 
H      46.08600000      46.21800000      67.64400000 
H      46.22200000      44.08600000      66.58100000 
H      44.98100000      44.88300000      65.98300000 
H      46.47300000      44.73400000      65.01500000 
H      48.21100000      45.07000000      67.74500000 
H      48.54300000      45.78800000      66.20600000 
H      48.47200000      46.78900000      67.49900000 
N      42.34300000      46.46100000      70.42800000 
C      42.74300000      44.88400000      71.24400000 
C      41.35600000      45.00800000      72.33100000 
O      41.31000000      46.23500000      72.98700000 
C      43.84300000      45.31200000      71.92000000 
C      45.32800000      45.41100000      71.00900000 
C      46.34500000      45.84300000      71.67000000 
C      45.42900000      44.01000000      70.42500000 
H      42.39500000      47.09000000      70.66300000 
H      42.53600000      44.27900000      70.82500000 
H      43.95200000      46.26200000      72.55300000 
H      44.07200000      44.43100000      72.75200000 
H      45.05100000      46.00900000      70.37900000 
H      47.27500000      45.67000000      71.20800000 
H      46.36600000      46.51300000      72.33600000 
H      46.69100000      44.79200000      72.71700000 
H      46.28500000      43.97500000      69.71100000 
H      45.46400000      43.10000000      71.07500000 
H      44.51800000      43.72700000      69.59800000 
N      51.55000000      43.22800000      77.24800000 
C      51.51100000      43.15900000      75.54000000 
C      53.04900000      43.79500000      75.28300000 
O      53.30700000      44.75700000      76.05900000 
C      50.44900000      43.90400000      75.44600000 
C      49.26000000      43.40300000      75.53100000 
C      48.23500000      42.62800000      76.01300000 
C      47.86600000      44.83400000      75.44200000 
C      47.74600000      42.05000000      76.19200000 
C      47.04000000      43.92600000      75.76100000 
C      46.44100000      43.51100000      76.03700000 
O      44.99300000      42.86600000      76.43100000 
H      51.57200000      43.61200000      77.65400000 
H      51.57700000      42.08900000      75.27800000 
H      50.69700000      45.03600000      75.58000000 
H      50.65400000      44.03900000      74.02800000 
H      49.45900000      41.46000000      76.07300000 
H      48.36600000      45.49300000      75.16100000 
H      46.98600000      40.97000000      76.62400000 
H      45.84500000      45.31000000      75.58800000 
H      44.82900000      42.04600000      76.85300000 
N      53.65800000      43.24100000      74.47700000 
C      54.88300000      44.13200000      74.03200000 
C      54.60300000      44.44300000      72.54200000 
O      54.04300000      43.32400000      71.49000000 
C      56.07500000      42.88000000      73.90100000 
C      56.66400000      42.90100000      75.13200000 
C      55.82900000      41.39000000      76.21100000 
C      57.57700000      43.28200000      76.23700000 
C      56.37300000      41.56600000      77.10000000 
C      57.93100000      43.33300000      76.69700000 
C      57.57200000      42.45200000      78.32800000 
O      57.61900000      42.16700000      79.12100000 
H      53.35200000      42.38300000      73.97800000 
H      55.05700000      44.61400000      74.38500000 
H      55.83500000      41.99100000      73.35000000 
H      56.88600000      43.44700000      73.26100000 
H      55.31600000      41.14700000      75.66700000 
H      58.15200000      44.32800000      75.15200000 
H      55.86300000      40.67700000      78.03600000 
H      58.79900000      43.94400000      77.62300000 
H      57.17600000      41.82100000      79.74000000 
N      54.62900000      45.54900000      72.02200000 
C      54.40000000      46.20400000      70.83600000 
C      55.63600000      47.50100000      70.63100000 
O      55.64200000      47.72900000      70.82700000 
C      53.06500000      47.05400000      70.91800000 
C      51.74000000      46.27200000      71.47800000 
C      52.79200000      47.36400000      69.65500000 
C      50.79000000      46.74000000      72.22100000 
H      55.08300000      46.23100000      72.85900000 
H      54.21600000      45.31700000      70.17200000 
H      53.16200000      47.76300000      71.68800000 
H      51.32700000      45.67500000      70.59700000 
H      52.20900000      45.17500000      72.03800000 
H      51.64300000      48.26800000      69.69400000 
H      53.45300000      48.38000000      69.25400000 
H      52.54400000      46.92400000      68.87400000 
H      50.06300000      46.35100000      72.54900000 
H      51.35900000      47.18400000      73.30500000 
H      50.52100000      47.86900000      71.81200000 
N      56.17100000      46.67300000      69.51100000 
C      57.42300000      47.18100000      69.05400000 
C      57.60300000      47.50800000      67.44700000 
O      57.10400000      46.06500000      66.81800000 
C      58.89100000      46.76400000      69.60800000 
O      58.69300000      46.43400000      70.95700000 
C      59.98500000      46.77200000      69.40600000 
H      56.01500000      45.65100000      68.95300000 
H      57.57300000      48.13300000      69.35200000 
H      58.57900000      45.26100000      69.18100000 
H      59.09700000      45.91200000      71.37300000 
H      60.75300000      46.53800000      69.47300000 
H      60.24100000      46.85400000      67.77300000 
H      60.14400000      47.99900000      69.26200000 
N      57.74100000      48.04000000      66.67700000 
C      57.94400000      48.51200000      65.55400000 
C      58.80800000      48.81600000      64.65100000 
O      59.75500000      50.05200000      65.54700000 
C      56.41400000      48.89900000      64.78700000 
C      56.26900000      49.98700000      64.99200000 
C      56.46500000      51.36600000      64.06000000 
C      55.29700000      50.90300000      66.27600000 
N      55.98300000      52.81700000      64.61800000 
C      55.31000000      52.03500000      65.69400000 
C      54.84500000      50.41800000      67.11600000 
C      54.46100000      53.07300000      66.92600000 
C      53.94600000      51.09500000      68.10300000 
C      53.89700000      52.52000000      67.78400000 
H      58.12700000      49.23900000      67.36200000 
H      57.96900000      47.19800000      65.03100000 
H      56.49100000      48.62700000      63.76900000 
H      55.73900000      48.21300000      65.22200000 
H      57.01500000      51.29800000      63.31700000 
H      56.02500000      53.25800000      64.30600000 
H      54.81900000      49.13700000      67.44600000 
H      54.45900000      54.21200000      66.44400000 
H      53.56100000      50.79100000      68.89400000 
H      53.42700000      53.12800000      68.38800000 
N      60.88100000      52.26300000      67.47000000 
C      60.13900000      53.05000000      68.34700000 
C      59.20700000      51.99400000      68.85600000 
O      58.38800000      51.34400000      68.44600000 
C      59.21800000      54.04400000      67.99100000 
C      59.17300000      55.11100000      68.86400000 
C      59.50800000      56.47100000      68.86800000 
C      59.56700000      57.19400000      67.63900000 
N      60.69900000      58.66300000      67.80600000 
H      60.21300000      51.46400000      66.73300000 
H      60.97000000      53.19800000      69.12000000 
H      60.30700000      54.74900000      67.14600000 
H      58.75600000      53.87000000      67.20700000 
H      57.73800000      55.34300000      68.72300000 
H      59.00400000      54.72600000      69.90300000 
H      59.34200000      57.10600000      69.81800000 
H      60.77700000      56.34900000      69.01800000 
H      59.61300000      56.89600000      66.89400000 
H      58.23800000      57.63000000      67.62200000 
H      59.97100000      59.21100000      66.83600000 
H      59.88200000      59.17700000      68.55500000 
H      60.77700000      58.47100000      67.73500000 
N      58.82100000      51.47900000      70.48800000 
C      58.37200000      51.24400000      71.14300000 
C      57.27600000      52.01300000      71.59600000 
O      57.28800000      52.96700000      71.85100000 
C      59.00600000      50.48300000      72.45400000 
H      60.09300000      52.50300000      70.97800000 
H      57.90900000      50.21700000      70.39700000 
H      58.33700000      49.72400000      72.86400000 
H      59.89400000      49.64000000      71.89800000 
H      59.41900000      51.02600000      72.94700000 
N      55.85900000      51.08800000      71.91800000 
C      54.87500000      51.78400000      72.48600000 
C      55.00600000      52.28900000      74.08000000 
O      56.11600000      51.75800000      74.56200000 
C      53.68500000      51.41900000      72.19100000 
C      52.14600000      51.75800000      72.43600000 
C      52.35300000      53.11100000      71.43500000 
C      51.09500000      51.38000000      73.22200000 
N      50.40700000      53.39400000      72.09500000 
C      50.26200000      52.55300000      72.73200000 
C      50.86800000      50.54600000      73.98600000 
C      48.80600000      52.44900000      73.51300000 
C      49.68400000      50.40400000      74.52300000 
C      48.70100000      51.33900000      74.31800000 
H      55.98500000      50.28300000      71.72000000 
H      54.72500000      52.97200000      71.88700000 
H      53.69900000      50.54100000      71.27900000 
H      53.57500000      50.06800000      73.21100000 
H      52.48800000      53.47200000      71.08600000 
H      50.31500000      54.12800000      71.61100000 
H      51.53300000      49.66600000      74.25600000 
H      48.17700000      53.19600000      73.20900000 
H      49.30600000      49.59700000      75.29200000 
H      47.57100000      51.36100000      74.80300000 
N      54.46500000      52.95800000      74.56300000 
C      54.66900000      53.83500000      75.88300000 
C      54.17000000      52.53100000      76.82200000 
O      54.65900000      52.92400000      78.21300000 
C      53.75200000      54.94700000      75.98900000 
C      52.32500000      55.05100000      75.69800000 
O      51.66700000      54.49700000      76.96300000 
O      51.92900000      55.38600000      74.93700000 
H      53.46300000      53.56500000      73.97400000 
H      55.48800000      53.74700000      75.94400000 
H      54.19200000      55.42000000      77.14200000 
H      54.32900000      55.69500000      75.24800000 
N      53.58300000      51.60700000      77.06000000 
C      53.24200000      50.43000000      77.56200000 
C      54.03400000      49.63900000      77.36100000 
O      52.76900000      47.98200000      76.70600000 
C      51.69900000      50.62400000      78.03500000 
C      51.16900000      50.72500000      79.45100000 
C      51.54100000      52.25500000      79.88800000 
N      50.79800000      52.97700000      79.38100000 
C      49.55000000      53.69200000      79.04600000 
N      48.83100000      52.96800000      80.28800000 
N      48.95000000      54.27800000      78.55700000 
H      53.05200000      51.47000000      75.64900000 
H      53.75400000      50.81300000      78.64700000 
H      51.13200000      51.17300000      77.38300000 
H      51.26400000      49.32400000      77.73000000 
H      50.37000000      50.51200000      79.62200000 
H      51.92400000      50.02600000      80.17800000 
H      51.28500000      52.28200000      81.02100000 
H      52.66200000      52.40000000      79.88900000 
H      51.44900000      53.65800000      78.30300000 
H      49.07700000      52.45700000      80.86000000 
H      47.88000000      53.25700000      80.26900000 
H      49.74700000      54.71500000      77.55700000 
H      48.25800000      54.65400000      78.39400000 
N      54.95200000      49.21500000      77.22000000 
C      56.07800000      48.10200000      76.49300000 
C      56.32500000      46.98700000      77.91200000 
O      57.25200000      47.06100000      78.20700000 
C      57.03400000      48.58700000      75.99400000 
C      57.38100000      47.46100000      75.06900000 
O      56.86500000      46.66100000      74.21800000 
N      59.02900000      47.32100000      74.77500000 
H      55.66600000      49.86700000      77.50500000 
H      55.07200000      47.41100000      75.90300000 
H      56.76200000      49.25500000      75.28300000 
H      57.73000000      48.75000000      76.44600000 
H      59.36000000      46.64200000      74.14500000 
H      59.51600000      47.87800000      75.35600000 
N      55.25000000      46.21300000      78.28100000 
C      55.19600000      45.27700000      79.17100000 
C      55.13600000      45.86800000      80.73000000 
O      55.75600000      46.39000000      81.43100000 
H      54.26900000      46.24100000      77.69600000 
H      54.86400000      44.45800000      79.09000000 
H      56.50500000      45.01900000      79.41300000 
N      53.39600000      45.73700000      80.88900000 
C      53.15100000      46.01900000      82.19400000 
C      51.66100000      45.30000000      82.39700000 
O      51.23600000      44.98200000      81.49600000 
C      52.51900000      47.75300000      82.00400000 
C      52.15900000      48.24200000      83.37500000 
C      53.07200000      48.92800000      83.99600000 
O      53.84800000      47.34200000      85.17100000 
N      53.87600000      49.66700000      84.46600000 
H      53.05200000      45.35900000      80.26700000 
H      53.71400000      46.07600000      82.98000000 
H      53.37500000      48.20700000      81.64100000 
H      51.74300000      47.71600000      81.31300000 
H      51.64500000      49.23600000      83.13900000 
H      51.36900000      47.73600000      83.85100000 
H      53.39100000      50.53300000      83.77100000 
H      54.53000000      49.96700000      84.88100000 
N      42.21400000      49.33500000      73.70000000 
C      42.88200000      50.23700000      73.46200000 
C      43.13100000      50.22300000      71.80600000 
O      42.60100000      49.16100000      71.30300000 
C      44.42100000      50.29400000      74.02300000 
O      44.86300000      51.66100000      73.88600000 
C      45.18700000      49.19900000      73.76400000 
H      41.89600000      48.45700000      73.43200000 
H      42.41500000      51.32200000      73.54900000 
H      44.01600000      50.26600000      75.20300000 
H      44.68500000      52.26600000      74.41300000 
H      46.06700000      49.27100000      74.29200000 
H      44.76100000      48.28300000      73.77500000 
H      45.53300000      49.35500000      72.65000000 
N      43.64600000      50.95300000      71.28700000 
C      44.03100000      51.05500000      70.02200000 
C      45.51900000      51.64400000      69.50200000 
O      45.84200000      52.66200000      70.41000000 
C      42.82600000      51.81400000      68.96100000 
O      43.27800000      51.76600000      67.63800000 
H      44.22400000      51.90600000      71.88400000 
H      44.06800000      49.98500000      69.49500000 
H      42.15200000      51.52800000      69.30500000 
H      43.07900000      53.02900000      69.36400000 
H      43.36500000      50.90800000      67.34600000 
N      46.09300000      51.18200000      68.61700000 
C      47.44200000      51.74800000      68.11200000 
C      47.18400000      52.05600000      66.59300000 
O      47.17400000      51.37800000      65.87700000 
C      48.54600000      50.80000000      68.33600000 
C      48.65300000      50.33300000      69.41800000 
C      49.68800000      51.75600000      67.64800000 
C      48.22500000      48.97300000      70.28600000 
H      45.77000000      50.43400000      68.12300000 
H      47.58000000      52.62600000      68.67400000 
H      48.38300000      49.98700000      67.63500000 
H      49.93400000      50.28400000      69.97100000 
H      48.30800000      51.21500000      70.48800000 
H      50.87500000      50.65500000      67.79600000 
H      49.75100000      51.83000000      66.75600000 
H      50.10400000      52.31200000      68.32900000 
H      48.22400000      48.78000000      70.99500000 
H      46.99500000      49.01000000      69.74100000 
H      48.64200000      48.18900000      69.43400000 
N      55.75700000      44.98700000      62.34800000 
C      55.08200000      45.06900000      63.41500000 
C      55.03500000      43.88900000      64.19400000 
O      54.74600000      42.94700000      63.86200000 
C      53.49000000      45.60300000      63.32400000 
C      52.54800000      46.04300000      64.33200000 
C      53.33100000      46.71000000      65.61800000 
C      51.54300000      46.29700000      63.96400000 
H      55.56100000      43.93600000      61.83200000 
H      55.65100000      45.98100000      64.03300000 
H      53.71300000      46.58600000      62.66200000 
H      53.19200000      44.95600000      62.52300000 
H      52.47800000      44.78800000      64.89700000 
H      52.48000000      46.91500000      66.25300000 
H      54.03100000      46.41800000      65.92100000 
H      53.41800000      47.80500000      65.05200000 
H      50.55800000      46.48400000      64.75300000 
H      51.44400000      47.42400000      63.44500000 
H      50.84600000      45.68900000      63.03000000 
N      55.84300000      43.61000000      65.51400000 
C      55.97800000      42.97200000      66.16400000 
C      55.07600000      42.55800000      67.47500000 
O      55.32500000      43.72800000      68.30900000 
C      57.62700000      42.53000000      66.71900000 
O      58.19300000      42.39700000      65.34500000 
H      56.19600000      44.84400000      65.79600000 
H      55.82000000      41.77800000      65.56100000 
H      57.81200000      43.54500000      67.18800000 
H      57.63700000      41.80900000      67.30200000 
H      59.29600000      42.51300000      65.63000000 
N      54.34300000      41.84300000      67.63700000 
C      53.27200000      41.63900000      68.50500000 
C      53.45600000      40.12900000      69.17200000 
O      53.45800000      39.44900000      68.80600000 
C      51.76600000      41.86500000      68.16600000 
C      50.68800000      41.39400000      69.04200000 
C      51.41000000      43.14300000      67.35100000 
H      54.17500000      40.99600000      66.78500000 
H      53.45500000      42.53000000      69.34200000 
H      51.72700000      41.05600000      67.26500000 
H      49.89100000      41.66300000      68.77900000 
H      50.80900000      40.64600000      69.47200000 
H      50.87500000      42.26200000      69.98800000 
H      50.76600000      43.24300000      67.04400000 
H      51.71200000      43.96400000      68.23800000 
H      52.39300000      43.41900000      66.65800000 
H      45.44669519      49.01219820      64.24540688 
H      43.31960044      47.62248297      66.97755665 
H      42.84411172      46.55081562      69.68582738 
H      40.71691290      44.24350212      72.41532480 
H      50.80845009      42.84195598      77.58127727 
H      58.77915469      48.36447467      63.75920808 
H      61.34305014      52.79304848      66.90825426 
H      51.26875920      45.21225628      83.31266817 
H      42.46308098      48.97598995      74.48681030 
H      47.01422692      52.99538362      66.29511493 
H      55.51191816      45.64592003      61.78607538 
H      53.58250255      40.03042686      70.15905645 
