331
Properties=species:S:1:pos:R:3 pbc="F F F"
N      17.18100000      32.12000000     104.91800000 
C      16.86200000      33.24600000     105.79200000 
C      17.94900000      33.40100000     106.83100000 
O      18.89800000      32.61900000     106.95900000 
C      15.44500000      33.11900000     106.35500000 
C      15.13400000      31.83900000     107.13000000 
O      13.94900000      31.67500000     107.48200000 
O      16.08700000      31.04600000     107.35200000 
H      17.30200000      31.25700000     105.35400000 
H      16.89900000      34.13700000     105.19900000 
H      15.19700000      33.96200000     106.97100000 
H      14.75900000      33.16400000     105.51200000 
N      17.86200000      34.52900000     107.61600000 
C      18.89300000      34.82900000     108.58900000 
C      18.19500000      35.59600000     109.70400000 
O      17.87100000      36.79400000     109.55400000 
C      20.05100000      35.65100000     107.95800000 
C      21.38500000      35.52200000     108.66000000 
C      22.48800000      35.06400000     107.93100000 
C      21.53900000      35.81400000     109.98700000 
C      23.71900000      34.92200000     108.54500000 
C      22.78100000      35.65400000     110.62200000 
C      23.88100000      35.19700000     109.89200000 
H      17.17700000      35.20300000     107.39800000 
H      19.29600000      33.90500000     108.96200000 
H      20.15500000      35.30300000     106.92700000 
H      19.75200000      36.68800000     107.88000000 
H      22.38700000      34.83100000     106.87300000 
H      20.71800000      36.18500000     110.58300000 
H      24.57600000      34.57200000     107.96500000 
H      22.88200000      35.87300000     111.66400000 
H      24.83400000      35.07500000     110.37700000 
N      17.92900000      34.91600000     110.80900000 
C      17.26400000      35.50400000     111.96600000 
C      18.16400000      35.40700000     113.16400000 
O      18.79800000      34.35300000     113.43700000 
C      15.85300000      34.92200000     112.19700000 
C      15.78500000      33.41200000     112.36500000 
C      14.38300000      32.85200000     112.53100000 
O      14.30700000      31.59600000     112.70700000 
O      13.39900000      33.63600000     112.48700000 
H      18.22100000      33.97700000     110.88800000 
H      17.14500000      36.54600000     111.73000000 
H      15.42800000      35.41200000     113.06400000 
H      15.24700000      35.22600000     111.35500000 
H      16.22400000      32.91600000     111.49300000 
H      16.37500000      33.09400000     113.21500000 
N      18.27100000      36.51200000     113.89100000 
C      19.06300000      36.72800000     115.08100000 
C      18.11400000      37.20000000     116.18200000 
O      16.96200000      37.59800000     115.89200000 
C      20.15200000      37.75800000     114.71000000 
C      21.11700000      38.23800000     115.81400000 
C      22.17900000      39.19200000     115.24800000 
C      23.37800000      38.47500000     114.63600000 
N      24.33200000      39.46200000     114.04300000 
H      17.74100000      37.32900000     113.58000000 
H      19.51600000      35.78900000     115.36400000 
H      20.71000000      37.31600000     113.90200000 
H      19.65700000      38.62000000     114.29500000 
H      20.57100000      38.76000000     116.57100000 
H      21.59200000      37.39600000     116.28300000 
H      21.73500000      39.83600000     114.50200000 
H      22.53500000      39.84000000     116.04300000 
H      23.92800000      37.92000000     115.39600000 
H      23.10000000      37.80200000     113.84900000 
H      25.19300000      39.03300000     113.76300000 
H      23.94900000      39.90800000     113.23900000 
H      24.57700000      40.19900000     114.70700000 
N      17.47700000      41.12200000     114.77400000 
C      17.16800000      41.45400000     113.40500000 
C      16.74500000      40.20900000     112.62300000 
O      17.26300000      39.10400000     112.90400000 
C      18.41800000      42.03500000     112.71400000 
C      18.92900000      43.27700000     113.39500000 
O      18.14400000      44.17100000     113.76100000 
N      20.24900000      43.38000000     113.59100000 
H      18.18400000      40.44400000     114.92900000 
H      16.37600000      42.19900000     113.39800000 
H      19.20100000      41.27200000     112.67800000 
H      18.18500000      42.29700000     111.68700000 
H      20.61800000      44.18100000     114.00500000 
H      20.87100000      42.65800000     113.31700000 
N      15.83300000      40.36100000     111.63700000 
C      15.32000000      39.24600000     110.85900000 
C      15.30200000      39.61700000     109.37400000 
O      14.70100000      40.63100000     109.01300000 
C      13.92700000      38.91300000     111.35500000 
O      13.39300000      37.89400000     110.50600000 
H      15.43500000      41.25200000     111.49000000 
H      15.98300000      38.39600000     111.01000000 
H      13.99700000      38.55300000     112.37400000 
H      13.30900000      39.79300000     111.33200000 
H      12.50400000      37.65400000     110.71700000 
N      15.95500000      38.79000000     108.53200000 
C      16.13100000      39.01100000     107.10200000 
C      15.77100000      37.74600000     106.32500000 
O      15.94200000      36.62100000     106.84900000 
C      17.59800000      39.38900000     106.78000000 
C      18.16800000      40.61300000     107.50600000 
C      18.89100000      40.22400000     108.83100000 
C      19.17000000      41.34500000     106.60700000 
H      16.44900000      38.01200000     108.92000000 
H      15.47400000      39.81600000     106.81000000 
H      18.22700000      38.51500000     106.94800000 
H      17.62400000      39.57800000     105.69400000 
H      17.35500000      41.29800000     107.75200000 
H      19.28700000      41.13400000     109.30900000 
H      18.23100000      39.74200000     109.53100000 
H      19.72600000      39.56200000     108.62400000 
H      19.60800000      42.20100000     107.11900000 
H      19.98000000      40.68200000     106.30300000 
H      18.68100000      41.71400000     105.70500000 
N      15.35400000      37.88500000     105.05800000 
C      14.91800000      36.75300000     104.24100000 
C      15.39200000      36.98200000     102.79900000 
O      15.21200000      38.10800000     102.25500000 
C      13.38100000      36.60900000     104.27900000 
C      12.89200000      35.18000000     104.31300000 
O      13.49700000      34.34800000     103.55300000 
O      11.92400000      34.91100000     105.04900000 
H      15.07900000      38.79800000     104.75000000 
H      15.38100000      35.88300000     104.63100000 
H      13.01100000      37.12900000     105.14300000 
H      12.94400000      37.09900000     103.40900000 
N      15.97300000      35.94100000     102.15100000 
C      16.55600000      36.07200000     100.80800000 
C      15.91500000      35.00800000      99.89000000 
O      15.67000000      33.87200000     100.28000000 
C      18.10800000      35.81800000     100.81200000 
C      18.81800000      36.25500000     102.10300000 
C      18.75500000      36.49500000      99.57700000 
C      18.92800000      37.75700000     102.40100000 
H      16.06500000      35.08500000     102.59900000 
H      16.33000000      37.05900000     100.43200000 
H      18.25800000      34.76100000     100.73100000 
H      18.35000000      35.75000000     102.94400000 
H      19.83200000      35.84300000     102.04600000 
H      19.83500000      36.33200000      99.60400000 
H      18.38900000      36.06400000      98.64700000 
H      18.57600000      37.55300000      99.55100000 
H      19.39800000      37.90600000     103.36300000 
H      19.51800000      38.26200000     101.65600000 
H      17.94400000      38.22700000     102.43300000 
N      13.86600000      38.53800000      95.43900000 
C      12.92600000      39.05500000      96.42000000 
C      13.66300000      39.14400000      97.78900000 
O      14.31800000      38.19800000      98.18000000 
C      11.67300000      38.17800000      96.52100000 
H      14.34400000      37.66100000      95.66800000 
H      12.65600000      40.04400000      96.11000000 
H      10.97900000      38.56800000      97.25200000 
H      11.18100000      38.17400000      95.54500000 
H      11.92800000      37.15400000      96.77300000 
N      13.50600000      40.27700000      98.43500000 
C      14.24300000      40.55400000      99.68200000 
C      13.22900000      41.03600000     100.72400000 
O      12.47700000      41.98800000     100.45300000 
C      15.30400000      41.64700000      99.37800000 
C      16.20400000      42.01100000     100.55100000 
C      17.25700000      41.16800000     100.90700000 
C      16.00300000      43.18600000     101.25500000 
C      18.11500000      41.50900000     101.95900000 
C      16.85800000      43.52900000     102.30700000 
C      17.91300000      42.71300000     102.66000000 
H      12.98200000      41.04700000      98.05700000 
H      14.71200000      39.65300000     100.01000000 
H      15.91000000      41.25600000      98.56800000 
H      14.80000000      42.53100000      99.01700000 
H      17.42600000      40.24800000     100.36000000 
H      15.19700000      43.84700000     100.98800000 
H      18.92200000      40.86800000     102.21000000 
H      16.69500000      44.45600000     102.83700000 
H      18.57000000      42.96900000     103.44700000 
N      13.20200000      40.42100000     101.88600000 
C      12.26200000      40.78800000     102.93700000 
C      12.99600000      41.02700000     104.21500000 
O      14.02300000      40.32700000     104.51000000 
C      11.15000000      39.73800000     103.15900000 
C      10.42300000      39.36000000     101.85100000 
C       9.38700000      38.24800000     102.02100000 
O       9.01400000      37.91900000     103.17600000 
O       8.97100000      37.72800000     100.93900000 
H      13.82500000      39.65000000     102.07800000 
H      11.79900000      41.72700000     102.61700000 
H      11.59200000      38.84700000     103.60000000 
H      10.43800000      40.13900000     103.86900000 
H       9.91600000      40.21600000     101.44600000 
H      11.13400000      39.03100000     101.11200000 
N      12.54600000      41.93900000     105.06300000 
C      13.15500000      42.19200000     106.34300000 
C      12.11700000      42.74600000     107.28900000 
O      11.18700000      43.49400000     106.85900000 
C      14.33400000      43.18200000     106.23000000 
H      11.82700000      42.56500000     104.76700000 
H      13.51400000      41.25200000     106.73900000 
H      14.81900000      43.30700000     107.20600000 
H      15.05500000      42.79200000     105.53600000 
H      13.97600000      44.14100000     105.88700000 
N      12.24800000      42.43600000     108.58300000 
C      11.38000000      42.92500000     109.63700000 
C      12.20700000      43.22800000     110.86300000 
O      11.96900000      42.71800000     111.95300000 
C      10.24200000      41.92100000     109.92300000 
H      12.98500000      41.78600000     108.82500000 
H      10.94600000      43.84200000     109.29200000 
H       9.59100000      42.30600000     110.69000000 
H       9.66300000      41.77700000     109.01700000 
H      10.64100000      40.97100000     110.24500000 
N      13.23500000      44.08300000     110.69200000 
C      14.09100000      44.42700000     111.80300000 
C      13.35400000      45.35700000     112.75600000 
O      12.29600000      45.94800000     112.45100000 
C      15.47800000      45.01900000     111.37800000 
C      15.49500000      46.54400000     111.15400000 
C      16.07100000      44.27100000     110.18900000 
C      16.94800000      47.11100000     111.10700000 
H      13.35200000      44.53100000     109.81300000 
H      14.29800000      43.52100000     112.34000000 
H      16.12000000      44.83100000     112.24500000 
H      14.98200000      46.79300000     110.21400000 
H      14.97600000      47.05600000     111.94300000 
H      17.12000000      44.50200000     110.08400000 
H      15.98200000      43.18600000     110.31200000 
H      15.57200000      44.53900000     109.25600000 
H      16.92300000      48.18200000     111.09600000 
H      17.48300000      46.78800000     112.00300000 
H      17.48800000      46.76500000     110.24500000 
N      12.64200000      49.43700000     111.16900000 
C      12.37500000      49.74600000     109.77400000 
C      12.06900000      48.46900000     109.02800000 
O      12.74400000      47.44900000     109.20500000 
C      13.51800000      50.59300000     109.11600000 
C      14.89400000      49.94900000     109.23800000 
C      13.20500000      50.91100000     107.63800000 
H      13.00900000      48.54300000     111.37900000 
H      11.49200000      50.38200000     109.75400000 
H      13.52600000      51.52200000     109.66900000 
H      15.65400000      50.64400000     108.86000000 
H      15.14400000      49.73600000     110.27200000 
H      14.97900000      49.03200000     108.67000000 
H      13.90200000      51.65200000     107.27200000 
H      13.26400000      50.04800000     107.01700000 
H      12.19200000      51.34000000     107.53700000 
N      11.00300000      48.51500000     108.18000000 
C      10.51500000      47.40900000     107.39200000 
C      10.71400000      47.75500000     105.92700000 
O      10.28000000      48.84700000     105.47800000 
C       9.05800000      47.18000000     107.77400000 
C       8.29000000      46.12900000     106.96100000 
C       7.00500000      45.70900000     107.71100000 
C       5.99200000      44.96100000     106.87000000 
N       5.21100000      45.90900000     105.99000000 
H      10.50900000      49.36700000     108.12500000 
H      11.10000000      46.53000000     107.64500000 
H       9.05900000      46.88400000     108.83400000 
H       8.52400000      48.12100000     107.73100000 
H       8.04000000      46.54400000     105.99100000 
H       8.89800000      45.25100000     106.80200000 
H       7.28100000      45.07700000     108.54400000 
H       6.52500000      46.58200000     108.15100000 
H       6.44900000      44.23500000     106.22200000 
H       5.25500000      44.45600000     107.49100000 
H       4.52600000      45.41000000     105.43800000 
H       4.70600000      46.58100000     106.55000000 
H       5.79900000      46.41000000     105.35800000 
N      11.41700000      46.89900000     105.17100000 
C      11.87300000      47.15800000     103.81600000 
C      11.73100000      45.88200000     103.04500000 
O      12.22100000      44.80000000     103.49200000 
C      13.33800000      47.75200000     103.81900000 
C      14.30600000      47.06800000     104.78400000 
C      13.92700000      47.80800000     102.41200000 
H      11.73800000      46.04100000     105.59400000 
H      11.22100000      47.91300000     103.39100000 
H      13.19100000      48.77400000     104.17300000 
H      15.23600000      47.60400000     104.77200000 
H      13.93200000      47.06000000     105.80100000 
H      14.50200000      46.04100000     104.48000000 
H      14.83700000      48.40000000     102.42400000 
H      14.16900000      46.83000000     102.04800000 
H      13.23900000      48.28600000     101.69000000 
N      11.00700000      45.86800000     101.89800000 
C      10.60500000      44.64100000     101.22200000 
C      10.43900000      44.78300000      99.72000000 
O       9.30600000      44.56700000      99.18800000 
C       9.35100000      44.08600000     101.87500000 
H      10.55500000      46.73900000     101.61400000 
H      11.42200000      43.91900000     101.37900000 
H       9.05200000      43.13800000     101.42700000 
H       9.51300000      43.92100000     102.93200000 
H       8.50800000      44.78300000     101.75600000 
N      11.50400000      45.06700000      98.94100000 
C      11.38100000      45.16500000      97.49600000 
C      11.55100000      43.82100000      96.78400000 
O      12.19600000      42.87900000      97.28600000 
C      12.57200000      46.09500000      97.14700000 
C      13.64200000      45.70200000      98.16600000 
C      12.87000000      45.33200000      99.43400000 
H      10.43800000      45.60000000      97.21800000 
H      12.90300000      45.98400000      96.11700000 
H      12.25900000      47.11200000      97.28500000 
H      14.23300000      44.87400000      97.80900000 
H      14.33700000      46.53400000      98.36500000 
H      13.26200000      44.43700000      99.89900000 
H      12.85500000      46.12200000     100.14700000 
N      11.02800000      43.74300000      95.56100000 
C      11.26900000      42.60000000      94.66800000 
C      11.38000000      43.12900000      93.24600000 
O      10.68200000      44.07700000      92.87200000 
C      10.18800000      41.49600000      94.81200000 
C       8.75700000      41.94200000      94.53200000 
C       7.77100000      40.85600000      94.77400000 
O       8.07300000      39.62700000      94.69400000 
N       6.50900000      41.22600000      95.06700000 
H      10.49100000      44.49000000      95.18400000 
H      12.20500000      42.16000000      94.95200000 
H      10.45100000      40.67400000      94.17500000 
H      10.26000000      41.14000000      95.84600000 
H       8.49600000      42.80400000      95.16800000 
H       8.64200000      42.26700000      93.52100000 
H       6.24100000      42.17200000      95.15400000 
H       5.79400000      40.52500000      95.20400000 
H      16.51692679      32.00515698     104.32149531 
H      18.41204349      37.19163716     117.13651566 
H      17.75475496      41.86054660     115.20689848 
H      15.68600140      35.23651218      98.94377496 
H      13.43610914      38.38277097      94.66369503 
H      13.71371759      45.51862690     113.67495593 
H      13.24248185      50.02186281     111.49665385 
H      12.02221798      42.70880767      92.60491150 
