222
Properties=species:S:1:pos:R:3 pbc="F F F"
N      42.14800000      37.24800000      83.42600000 
C      43.54500000      37.07700000      83.64800000 
C      44.32200000      38.36100000      83.42300000 
O      43.94400000      39.23100000      82.66100000 
C      44.12000000      35.91000000      82.81400000 
C      43.87400000      35.97200000      81.29700000 
C      44.69300000      36.62900000      80.43000000 
C      42.77600000      35.20600000      80.78400000 
C      44.53000000      36.55300000      79.06900000 
C      42.61500000      35.14600000      79.38700000 
C      43.47900000      35.76600000      78.54200000 
O      43.38900000      35.65400000      77.17500000 
H      41.84000000      37.54200000      82.51100000 
H      43.66400000      36.78900000      84.69300000 
H      45.19800000      35.86800000      82.97100000 
H      43.71500000      35.01100000      83.19200000 
H      45.52400000      37.19700000      80.80700000 
H      42.14700000      34.69600000      81.41800000 
H      45.19100000      37.03900000      78.38100000 
H      41.80100000      34.54300000      79.00600000 
H      42.66400000      35.14600000      76.87100000 
N      45.50500000      38.40600000      84.09800000 
C      46.51100000      39.43800000      83.89600000 
C      47.47700000      39.02500000      82.78100000 
O      47.84900000      37.82900000      82.66700000 
C      47.27600000      39.76700000      85.20500000 
C      46.49900000      40.73800000      86.08400000 
C      47.67300000      38.51000000      86.01200000 
H      45.73700000      37.65800000      84.67400000 
H      46.00500000      40.34300000      83.58000000 
H      48.21100000      40.25000000      84.88700000 
H      47.07900000      40.97500000      86.97400000 
H      46.31700000      41.67500000      85.55500000 
H      45.56300000      40.32900000      86.38600000 
H      48.42100000      38.77600000      86.75200000 
H      46.80200000      38.13400000      86.57000000 
H      48.05100000      37.72100000      85.40900000 
N      47.87000000      39.98900000      81.97500000 
C      48.69700000      39.76500000      80.78900000 
C      49.64500000      40.91400000      80.55500000 
O      49.35500000      42.05800000      81.00800000 
C      47.82500000      39.55200000      79.54200000 
H      47.50900000      40.91400000      82.08200000 
H      49.29700000      38.85800000      80.96800000 
H      48.42100000      39.41000000      78.66300000 
H      47.20400000      38.67700000      79.68400000 
H      47.17900000      40.40900000      79.40900000 
N      50.38000000      35.57300000      78.89200000 
C      49.50000000      35.51900000      80.06600000 
C      50.27100000      35.09600000      81.29800000 
O      51.08800000      34.16000000      81.24500000 
C      48.37300000      34.48600000      79.75100000 
C      47.44600000      34.20100000      80.90300000 
C      46.31200000      33.22000000      80.58600000 
O      46.06400000      32.97600000      79.38400000 
O      45.71200000      32.73900000      81.58900000 
H      50.63900000      34.70900000      78.49200000 
H      49.06200000      36.47700000      80.21100000 
H      47.83000000      34.85700000      78.91500000 
H      48.86000000      33.55300000      79.42900000 
H      47.98800000      33.78500000      81.76200000 
H      46.99300000      35.11700000      81.26600000 
N      49.99000000      35.73100000      82.43400000 
C      50.48300000      35.32100000      83.74000000 
C      49.44300000      34.44900000      84.36200000 
O      48.50400000      34.97400000      85.09500000 
C      50.85300000      36.52600000      84.57700000 
S      51.64400000      36.07700000      86.22700000 
H      49.30400000      36.47800000      82.43000000 
H      51.38800000      34.70700000      83.56600000 
H      51.55200000      37.15800000      84.04400000 
H      49.98300000      37.09700000      84.83100000 
H      52.87600000      35.75100000      85.78800000 
N      49.44200000      33.16200000      84.09700000 
C      48.34100000      32.28100000      84.44400000 
C      48.20300000      32.11200000      85.97600000 
O      47.12300000      31.86100000      86.45900000 
C      48.58000000      30.86600000      83.82200000 
O      49.16200000      31.03400000      82.49800000 
C      47.29500000      30.07300000      83.73900000 
H      50.10700000      32.80700000      83.45100000 
H      47.40900000      32.69000000      84.09600000 
H      49.33400000      30.36900000      84.37400000 
H      48.52200000      31.26800000      81.83700000 
H      47.52400000      29.07300000      83.32600000 
H      46.85500000      29.92800000      84.71000000 
H      46.58200000      30.54600000      83.09500000 
N      49.36300000      32.18500000      86.65000000 
C      49.47700000      31.75600000      88.04400000 
C      50.22400000      30.42900000      88.06800000 
O      51.17900000      30.27500000      87.30000000 
H      50.18400000      32.37700000      86.18800000 
H      50.04300000      32.48400000      88.60200000 
H      48.48800000      31.67700000      88.48600000 
N      49.76000000      29.51000000      88.89700000 
C      50.25200000      28.12300000      88.98600000 
C      51.59400000      28.03300000      89.65100000 
O      52.32100000      29.06500000      89.88100000 
C      50.24100000      27.39400000      87.61400000 
C      48.85700000      26.84000000      87.14800000 
C      48.41700000      25.64700000      87.98100000 
C      47.76400000      27.89200000      87.08900000 
H      49.00100000      29.71400000      89.48100000 
H      49.56800000      27.62000000      89.65100000 
H      50.62500000      28.05800000      86.87000000 
H      50.91600000      26.55300000      87.66000000 
H      49.03100000      26.49400000      86.14400000 
H      47.50000000      25.21400000      87.56900000 
H      49.16400000      24.86600000      87.99300000 
H      48.19700000      25.91500000      89.01400000 
H      46.88300000      27.50100000      86.58700000 
H      47.44800000      28.23200000      88.07700000 
H      48.08100000      28.79000000      86.53100000 
N      54.67400000      26.82400000      86.13500000 
C      54.97600000      27.75300000      85.06000000 
C      54.81800000      29.18500000      85.63300000 
O      54.54300000      29.38600000      86.80900000 
C      54.02000000      27.47000000      83.87000000 
C      54.32800000      26.09500000      83.26100000 
C      53.09200000      25.22100000      83.10300000 
O      53.12700000      24.06500000      83.67000000 
O      52.13400000      25.66300000      82.44800000 
H      53.78800000      26.85000000      86.53600000 
H      55.97300000      27.64200000      84.77300000 
H      53.01900000      27.54100000      84.18900000 
H      54.16600000      28.25600000      83.11400000 
H      54.74100000      26.23100000      82.23300000 
H      55.07700000      25.57100000      83.81400000 
N      55.04100000      30.19600000      84.73400000 
C      54.96900000      31.59000000      85.19500000 
C      54.35800000      32.41600000      84.06600000 
O      53.30800000      33.08700000      84.29000000 
C      56.35500000      32.12100000      85.65000000 
C      56.28600000      33.25300000      86.62400000 
C      56.15200000      34.58300000      86.35600000 
C      56.39300000      33.15100000      88.06000000 
N      56.15900000      35.31700000      87.53700000 
C      56.31600000      34.43700000      88.58600000 
C      56.55800000      32.07100000      88.92900000 
C      56.40600000      34.69600000      89.94700000 
C      56.65600000      32.30800000      90.28500000 
C      56.58600000      33.60400000      90.81600000 
H      55.31600000      29.98500000      83.84400000 
H      54.29400000      31.63700000      86.01000000 
H      56.86900000      31.29100000      86.11000000 
H      56.94800000      32.39200000      84.77800000 
H      56.05300000      35.08800000      85.41200000 
H      56.08000000      36.29300000      87.59100000 
H      56.61200000      31.05600000      88.56100000 
H      56.35600000      35.70800000      90.34600000 
H      56.78500000      31.48800000      90.97600000 
H      56.66200000      33.77800000      91.85100000 
N      54.96300000      32.38800000      82.89200000 
C      54.50100000      33.09300000      81.69800000 
C      54.16800000      32.06600000      80.60500000 
O      54.95000000      31.08500000      80.42100000 
C      55.59200000      34.01000000      81.14200000 
C      55.90200000      35.18600000      82.05000000 
C      57.04800000      35.34900000      82.76600000 
C      55.09000000      36.32400000      82.32400000 
N      56.95900000      36.53400000      83.48800000 
C      55.75100000      37.12500000      83.20000000 
C      53.81900000      36.74900000      81.83400000 
C      55.24100000      38.33400000      83.71200000 
C      53.29800000      37.92900000      82.28900000 
C      53.97800000      38.71200000      83.22000000 
H      55.81300000      31.88000000      82.77500000 
H      53.61500000      33.63300000      81.95000000 
H      56.48100000      33.43700000      80.96000000 
H      55.25300000      34.39000000      80.17300000 
H      57.90200000      34.72700000      82.84100000 
H      57.68000000      36.88000000      84.09100000 
H      53.27800000      36.13800000      81.11900000 
H      55.75600000      38.93600000      84.40800000 
H      52.34500000      38.26700000      81.91800000 
H      53.54300000      39.61900000      83.58600000 
N      53.09000000      32.29500000      79.84400000 
C      52.73700000      31.45800000      78.74700000 
C      52.50400000      32.35000000      77.51900000 
O      51.65600000      33.27400000      77.58700000 
C      51.49200000      30.62000000      79.02600000 
C      51.26000000      29.46800000      78.04600000 
C      49.96000000      28.71200000      78.29700000 
N      49.70300000      28.41200000      79.71400000 
C      50.38500000      27.53500000      80.47000000 
N      50.17000000      27.51800000      81.80700000 
N      51.26100000      26.71000000      79.95900000 
H      52.45800000      33.01600000      80.13300000 
H      53.57400000      30.80000000      78.53600000 
H      51.61400000      30.22600000      80.03500000 
H      50.61900000      31.27300000      79.05700000 
H      51.23900000      29.82300000      77.02900000 
H      52.11900000      28.78700000      78.11400000 
H      49.12300000      29.31100000      77.98200000 
H      49.93100000      27.79700000      77.72200000 
H      49.03200000      28.98100000      80.17200000 
H      49.57800000      28.17700000      82.22700000 
H      50.70600000      26.88300000      82.33900000 
H      51.42600000      26.62700000      78.99200000 
H      51.78100000      26.12200000      80.59700000 
N      40.80900000      31.55300000      83.15100000 
C      42.22700000      31.38100000      83.30000000 
C      42.70500000      30.00900000      82.77400000 
O      43.96500000      29.81800000      82.71300000 
C      42.60300000      31.51500000      84.78000000 
O      41.71400000      30.62700000      85.47500000 
C      42.47000000      32.94600000      85.29400000 
H      40.26300000      31.40300000      83.95600000 
H      42.77100000      32.09900000      82.73300000 
H      43.63400000      31.17300000      84.91000000 
H      41.87100000      30.59500000      86.42800000 
H      42.67600000      32.96200000      86.36600000 
H      43.19500000      33.58300000      84.81100000 
H      41.48700000      33.32900000      85.12800000 
H      41.72285620      36.46842466      83.57268006 
H      50.49306468      40.76678854      80.04596653 
H      49.97520670      36.03487170      78.23411178 
H      51.95344316      27.14358918      89.93339867 
H      54.76630470      25.97971222      85.83724507 
H      53.02420963      32.19134858      76.67982680 
H      40.63456328      32.39603031      82.88856576 
H      42.03617238      29.31801007      82.49976922 
