 545 
 
N               178.4338459892       66.3628095879       90.2682051029
C               179.4583349342       66.6074383708       91.2599772005
C               180.8357261900       66.4918832568       90.6007905690
O               181.0588620807       65.7047319657       89.6940753450
C               179.3155598708       65.6024389538       92.4223767098
C               180.3890244636       65.8355049700       93.4812344726
C               177.9295614916       65.7254709379       93.0532293351
H               178.3610505738       65.4154051484       89.9295129726
H               179.3163913706       67.6288196420       91.6270951793
H               179.4408576200       64.5947775918       92.0116708079
H               180.2247088850       65.1709999791       94.3255165004
H               181.3862735502       65.6381368238       93.0939853437
H               180.3507717916       66.8605299882       93.8434067753
H               177.8138309218       64.9847761658       93.8397583326
H               177.8143706235       66.7114281610       93.4959599306
H               177.1338020188       65.5800988300       92.3262926295
N               185.2813037441       67.9426709095       91.5825934115
C               186.2119248380       68.3241732320       92.6166057820
C               187.5717491336       68.6163529336       91.9838719777
O               187.9231217510       68.1143641642       90.9272803048
C               186.3563434871       67.1999644255       93.6532977720
C               186.8712252617       65.9142652177       92.9906344603
O               188.0834493761       65.6294633256       93.1767810418
O               186.0822535084       65.2111130686       92.3381773040
H               185.6750523938       67.3933566444       90.8313273697
H               185.8272421112       69.2241240263       93.1086162282
H               187.0506082791       67.5039693015       94.4310722834
H               185.3761587650       67.0039201759       94.0921465433
N               197.4704719281       64.8900558261      106.6265673580
C               196.0909315062       64.5841080630      106.9589019343
C               195.9471139993       63.7389393385      108.2210330435
O               194.9167779309       63.1087587506      108.4326173486
C               195.3308330257       63.8904879947      105.8151174610
C               195.3340102979       64.6618522067      104.4938691959
C               194.4202883303       63.9522295498      103.4939533666
C               194.8574477316       66.0961573778      104.6922761004
H               197.6885863159       65.8779041383      106.5451723920
H               195.6102729826       65.5431173001      107.1799803327
H               195.7739457253       62.9082238120      105.6674642250
H               194.3023615868       63.7593040760      106.1530352332
H               196.3501671081       64.6863066851      104.0900637931
H               194.4095593243       64.4958770058      102.5540104335
H               194.7607469641       62.9420708672      103.2875761243
H               193.4031431472       63.9079223979      103.8755525068
H               194.7797360537       66.5896704258      103.7307165117
H               193.8815078425       66.1039507412      105.1705388109
H               195.5529529892       66.6715365043      105.2978975995
N               192.3602361012       63.4819220495      109.8492827981
C               191.3465668852       62.9801087947      108.9404079793
C               191.5558650594       61.4810269951      108.6982242149
O               190.6280839607       60.6861811363      108.7757257258
C               191.4002462229       63.7588027798      107.6343914587
H               192.9886335071       64.1932716453      109.5080650011
H               190.3645166871       63.0880998962      109.4177341155
H               190.6344503799       63.3959762812      106.9559545686
H               191.2347960685       64.8164689722      107.8294796133
H               192.3757575387       63.6334721575      107.1728291729
N               189.1459660605       58.2999601033      109.3953085584
C               188.7847694609       57.3733502640      108.3424591637
C               189.1286040888       55.9376131996      108.7442715087
O               188.3529535555       55.0075564506      108.5436427242
C               189.5125429405       57.7371407195      107.0492417144
C               189.0247672079       59.0365709684      106.3938720133
C               189.9248053786       59.3410334030      105.1984748721
C               187.5707645999       58.9392508195      105.9400442086
H               189.7785637151       59.0614043324      109.1662446559
H               187.6970233125       57.3942183203      108.1988077540
H               190.5756805031       57.8197696739      107.2833507120
H               189.3921333278       56.9142597187      106.3430494297
H               189.1145441008       59.8502574031      107.1177923225
H               189.5583579503       60.2132754678      104.6661270936
H               190.9417243109       59.5348274993      105.5291842027
H               189.9325420352       58.4941657059      104.5165982037
H               187.2848909713       59.8347689928      105.3947584719
H               187.4347539989       58.0813655697      105.2861291971
H               186.8980036309       58.8353829790      106.7862591264
N               187.8034736002       52.7334397854      106.7513937874
C               188.0072543250       53.1562647842      105.3830344801
C               189.4328326573       52.8103113764      104.9329860327
O               190.4193470714       53.1392887132      105.5677923103
C               187.7620245976       54.6672445102      105.2715335042
C               188.1787177982       55.1975925755      103.9042339144
C               186.2929188895       54.9735280941      105.5454247959
H               187.9891586127       53.4050246895      107.4901358909
H               187.2882379648       52.6022130721      104.7684465612
H               188.3751574905       55.1355447122      106.0458700236
H               187.9381639641       56.2552322545      103.8399399959
H               189.2482392664       55.0831090220      103.7428679871
H               187.6367684838       54.6705868569      103.1223301319
H               186.1291433603       56.0474015591      105.5612093788
H               185.6635208358       54.5392229931      104.7721577796
H               185.9872824162       54.5616774185      106.5043513363
N               190.4791156776       53.3022577796      101.4414747958
C               190.9161443884       54.0849652958      100.3063193686
C               191.7237295610       55.3178729681      100.7288122309
O               191.4079927598       56.0105201968      101.6842078381
H               189.5782286525       53.4922637785      101.8533581342
H               191.5279866343       53.4408934152       99.6714488969
H               190.0336359091       54.4209815369       99.7599590836
N               192.7582942663       55.6027692245       99.9298961388
C               193.5988012081       56.7548589503      100.1822926169
C               192.7248082146       58.0208183186      100.1488910726
O               191.7816419378       58.1321905629       99.3822886631
C               194.6928851255       56.8301832983       99.0986164895
O               195.1999041560       55.5160617855       98.9565254290
C               195.7903217671       57.8181371262       99.4839589235
H               193.1175209882       54.9303412236       99.2686409822
H               194.0629486074       56.6415452805      101.1700130113
H               194.2159615933       57.1407982211       98.1546018156
H               195.9873692051       55.5368310108       98.3997662443
H               196.5356044970       57.8633417778       98.6932785974
H               195.3856570886       58.8159854374       99.6274891890
H               196.2735109778       57.4780887737      100.3964577101
N               193.1246137795       58.9758861530      100.9955211041
C               192.4605058974       60.2501026614      101.1753898923
C               193.2899836983       61.3894266207      100.5595668028
O               194.5036633177       61.3393370344      100.4574103413
C               192.2867421534       60.5216293948      102.6686988056
H               193.9220290840       58.8049422760      101.5888633199
H               191.4959295836       60.1887128831      100.6643716260
H               191.7337902893       61.4413627449      102.8205433918
H               191.7383084561       59.7036981709      103.1261339840
H               193.2602220437       60.6104426152      103.1436169556
N               192.5432554254       62.4529048788      100.2232599572
C               193.0338288230       63.6287637941       99.5322919291
C               192.1180113883       64.8082325269       99.8836896220
O               191.0252649199       64.6074163245      100.3996903491
C               193.0184931080       63.3753339326       98.0025828602
O               191.7353603303       63.0911524465       97.5149938830
H               191.5335515584       62.3630411940      100.2461496472
H               194.0647025380       63.8142947003       99.8463134794
H               193.3539921059       64.2666874326       97.4680880348
H               193.7078302241       62.5472429930       97.7935894311
H               191.4017067958       62.2773687449       97.9282657670
N               192.5813783310       66.0326649335       99.6099194083
C               191.7992161946       67.2287635233       99.8565488422
C               191.4072268475       67.8757924338       98.5313887024
O               192.2358944932       68.0486645744       97.6397244807
C               192.5723087843       68.2835641305      100.6751789749
C               191.6074430556       69.3756929473      101.1289806600
C               193.2490830710       67.6310525491      101.8738132225
H               193.4613448333       66.1561976562       99.1322587719
H               190.9075001421       66.9123920227      100.4048554810
H               193.3359261327       68.7355221430      100.0326487102
H               192.1468993302       70.1285218112      101.6955720001
H               191.1395555733       69.8594914088      100.2756403862
H               190.8239726286       68.9561473936      101.7555825756
H               193.7297152404       68.3911636365      102.4831780413
H               192.5164364582       67.1008552769      102.4784233969
H               194.0034946749       66.9195657336      101.5482053872
N               190.1400927899       68.2808128815       98.4639455843
C               189.5835865808       68.8953419388       97.2857852047
C               188.6210409368       70.0225404619       97.6504893118
O               188.0223726128       70.0698641283       98.7164477794
C               188.8261459615       67.8668041474       96.4115727292
C               189.7682147285       66.7747892255       95.9152330318
C               187.6437149174       67.2617212132       97.1618631054
H               189.4912084458       68.0562001816       99.2107454606
H               190.4096927858       69.3024830978       96.6965749695
H               188.4615089347       68.4242489811       95.5424918547
H               189.2894861578       66.2095170101       95.1206651974
H               190.6770502382       67.2124714029       95.5135726860
H               190.0396070970       66.0972778933       96.7208344231
H               187.1435767221       66.5215750220       96.5426983734
H               187.9802577452       66.7805291526       98.0771258523
H               186.9135159044       68.0257072884       97.4180824925
N               185.1790698848       71.3929618612       96.1265077879
C               184.0859110709       70.8144296858       95.3731969966
C               183.5105120472       71.8297326018       94.3762048677
O               183.6157571343       73.0356211003       94.5603175734
C               182.9596597731       70.3841077431       96.3162613040
C               183.3975583214       69.3528029048       97.3502782926
S               184.1342325123       67.8428431996       96.6243700224
C               182.6944631907       67.2040553106       95.7267608105
H               184.9862159681       71.7536116782       97.0535524834
H               184.4668483261       69.9441732650       94.8266975514
H               182.5967248858       71.2686951046       96.8449245423
H               182.1456563898       69.9803432997       95.7122849829
H               184.1665679340       69.7542912994       98.0091585796
H               182.5433953607       69.0316916919       97.9457425832
H               182.8895596786       66.1543790329       95.5298928120
H               181.8102493874       67.3068916611       96.3470368934
H               182.5864256980       67.7354321389       94.7856614797
N               185.7643225765       72.4986756747      101.3341390536
C               186.6650288164       71.3739805660      101.2653062925
C               185.9312417026       70.0657501105      101.5509200271
O               184.9776673840       69.9778101470      102.3184298066
C               187.7900037861       71.5146609051      102.2957577365
C               188.6212178490       72.7947018493      102.1415688007
C               189.6544562622       72.8576342803      103.2652102056
C               189.3185934919       72.8602389491      100.7858950758
H               185.5618213769       72.8457448134      102.2595460617
H               187.0675194655       71.3232517399      100.2512005349
H               187.3414318247       71.4962587435      103.2935211987
H               188.4489496210       70.6489295362      102.2029557109
H               187.9555321644       73.6578737264      102.2367956307
H               190.1949047030       73.8007270048      103.2392113694
H               189.1789583557       72.7560262482      104.2389550077
H               190.3749671019       72.0503878303      103.1558244970
H               189.9666157373       73.7315098033      100.7460716272
H               189.9274211118       71.9725647286      100.6339124295
H               188.5958364119       72.9281304836       99.9786543445
N               186.4549243089       69.0217645624      100.9054743565
C               186.0873579120       67.6632998084      101.1957169814
C               187.3590935993       66.8270905833      101.2279217215
O               188.3349843934       67.1039524318      100.5387222561
C               185.1304525458       67.0753737073      100.1528181530
H               187.2096850069       69.1543273528      100.2417808707
H               185.5916210753       67.6485676319      102.1700377704
H               184.8977731984       66.0481043309      100.4206393696
H               184.2106466407       67.6538011789      100.1444161470
H               185.5700179624       67.1001351617       99.1591846806
N               187.3070154639       65.7928161933      102.0686596736
C               188.2597009787       64.7056454543      101.9765495823
C               187.6745854011       63.7152829698      100.9650915316
O               186.5398929662       63.2589584101      101.0983322572
C               188.5394293555       64.0589451134      103.3356458976
C               189.5210558021       62.9076075202      103.1422383333
C               189.1359709550       65.0955214416      104.2811517772
H               186.4380826299       65.6344485862      102.5724151154
H               189.1876725479       65.1188551321      101.5746119739
H               187.5978273525       63.6774303049      103.7445511768
H               189.8046809322       62.4952072300      104.1066273399
H               189.0872050325       62.1139283966      102.5379723310
H               190.4093557140       63.2801782689      102.6368080355
H               189.2785202886       64.6641164155      105.2668807783
H               190.0983908183       65.4231075467      103.8978957414
H               188.4848035332       65.9596555709      104.3646550459
N               188.4545191417       63.4831343001       99.9126089197
C               188.0875699033       62.6239095150       98.8059536964
C               188.8088145310       61.2856097757       98.9854783457
O               190.0251888831       61.2319942689       99.1386324790
C               188.4884279441       63.2653430549       97.4791484152
C               188.0540924715       62.4261789578       96.2798649590
C               188.6336040051       63.0308616533       95.0057025720
C               188.0401037583       62.4197646271       93.7447263753
N               188.5651129615       63.1464073154       92.5649687096
H               189.4085262038       63.8378274559       99.9219070008
H               187.0076136939       62.4630303825       98.8377828581
H               188.0229053481       64.2490598391       97.4139022131
H               189.5708697079       63.3944983674       97.4551310030
H               188.3951341481       61.3946988362       96.3831941890
H               186.9636772958       62.3911702493       96.2243001130
H               188.4229901653       64.1006156687       95.0005319275
H               189.7160506418       62.9009227376       95.0164550238
H               188.2574052975       61.3521454861       93.6835254475
H               186.9546053677       62.5288190684       93.7588143714
H               188.0711526635       62.8694210830       91.7146016346
H               188.3961165317       64.2432892554       92.7429348833
H               189.5682264223       62.9794580592       92.4549749063
N               187.9935228924       60.2341369470       99.0109508048
C               188.4021309570       58.8554848606       99.2069699694
C               187.8115906216       58.0983987794       98.0188018065
O               186.6237564029       57.7976408028       97.9834488684
C               187.8205314822       58.3029815770      100.5204070708
C               188.1646347769       56.8254599931      100.6725182941
C               188.3321752581       59.0990922001      101.7138084041
H               187.0075043984       60.3794310435       98.8114078805
H               189.4959452647       58.8113219606       99.2163059431
H               186.7314961795       58.4048592192      100.4470833109
H               187.6438201169       56.4196403870      101.5330185571
H               187.8560050284       56.2647454243       99.7925300316
H               189.2334494938       56.6948213346      100.8237131644
H               187.8741415786       58.7364355002      102.6288887432
H               189.4102958124       58.9849537222      101.7948148465
H               188.0918894125       60.1532751903      101.5986408396
N               188.6570552190       57.8397540882       97.0137707352
C               188.1917274397       57.2522667707       95.7691388029
C               187.1342166693       58.1668035535       95.1318609345
O               187.4475312558       59.2404390550       94.6361032224
H               189.6223953852       58.1228798002       97.0899532916
H               189.0338579997       57.1677956343       95.0854294123
H               187.7598647993       56.2656499846       95.9546820184
N               185.8751318403       57.7353037408       95.2485554695
C               184.7428518482       58.3808243646       94.6296989127
C               183.8419991002       59.0917854345       95.6462311833
O               182.8347434015       59.6969436546       95.2932485669
C               183.8908285623       57.3343735309       93.9098888908
C               184.7865144485       56.4755268013       92.9579254607
O               185.5075169504       55.6210841910       93.5108830041
O               184.7174598453       56.7195888235       91.7408619454
H               185.7072817582       56.7717070417       95.5043842356
H               185.1151867555       59.1321071537       93.9211529396
H               183.4435536054       56.6764313815       94.6609266484
H               183.1038006920       57.8300672600       93.3432016914
N               184.2369458987       58.9882188567       96.9115865841
C               183.4671271043       59.4884124466       98.0182728104
C               184.0897161738       60.7892468237       98.5288186885
O               185.2769294060       61.0464718924       98.3866409289
C               183.4259196597       58.4504293149       99.1418103126
C               182.4473941094       57.2913041887       98.7701596708
O               182.6107629957       56.6954233729       97.7030371107
O               181.5398462649       57.0657674471       99.6128676925
H               185.0682544292       58.4496099145       97.1325074690
H               182.4578237979       59.6925014158       97.6383617559
H               184.4319633005       58.0477611533       99.2739769881
H               183.0887686805       58.9165105038      100.0667630987
N               183.2433173897       61.5843899489       99.1959900883
C               183.6124564725       62.8948787694       99.6857221636
C               183.0020081524       63.1049503518      101.0747049038
O               181.8278669066       62.8246441308      101.2921768836
C               183.0454775781       63.9990974103       98.7661567964
C               183.4266770294       63.8088481109       97.3256468702
C               182.5947731760       63.0985353797       96.4668754241
C               184.6024536383       64.3410750180       96.8160991311
C               182.9065091444       62.9457136052       95.1323712521
C               184.9207670679       64.2028082747       95.4774409991
C               184.0697426887       63.5154693948       94.6167581633
O               184.3207972697       63.3735868450       93.2901655519
H               182.2560387356       61.3697987622       99.2053954904
H               184.7031149536       62.9311413786       99.7220169161
H               181.9572130312       63.9702315080       98.8562311867
H               183.4105390730       64.9618770829       99.1245317712
H               181.6755049524       62.6664355700       96.8353104793
H               185.2681640871       64.8889826032       97.4652831392
H               182.2678004356       62.3760808116       94.4758418715
H               185.8303531952       64.6340808440       95.0867655040
H               185.0041629193       64.0112796313       92.9769858788
N               183.8192193736       63.6537012804      101.9699394945
C               183.4300176534       63.9801959348      103.3277341752
C               183.6147970987       65.4830910122      103.5467776339
O               184.6877834279       66.0150846380      103.2805579069
C               184.3139887899       63.2300616621      104.3396314629
C               184.0749550697       61.7495022078      104.2957358302
C               184.7348610904       60.9438622717      103.3733146332
C               183.1733214051       61.1631988718      105.1743859226
C               184.5021367028       59.5817382306      103.3286116075
C               182.9480379304       59.8001171344      105.1509666949
C               183.6148706818       59.0017577738      104.2293030471
O               183.3899781211       57.6559876254      104.1601406425
H               184.8094987918       63.7402686265      101.7452308172
H               182.3825253604       63.7115737188      103.4672134738
H               185.3575440239       63.4543749312      104.1105455181
H               184.0728326150       63.6204243139      105.3275796923
H               185.4415993322       61.3832326398      102.6851757134
H               182.6404790428       61.7787705931      105.8838907516
H               185.0109137390       58.9571640252      102.6110670513
H               182.2569812898       59.3597286855      105.8537673712
H               182.9433859543       57.3566381538      104.9694446595
N               182.5459078105       66.1708104839      103.9724459453
C               182.7096742587       67.5822812192      104.2676202183
C               183.8450692511       67.7657536538      105.2838311032
O               183.9503806108       67.0329018544      106.2624390579
C               181.4024549886       68.1667667592      104.8135185161
O               181.0226886081       67.4737550684      105.9731295765
H               181.8287540993       65.6771930476      104.4933148878
H               182.9823115538       68.1066574052      103.3444093171
H               181.5610849555       69.2345358213      105.0198116907
H               180.6244658360       68.0743473645      104.0407042028
H               180.2166756338       67.8991758486      106.3651761116
N               184.6948966182       68.7600974489      105.0161885258
C               185.8508016640       68.9904836098      105.8512346973
C               186.0752600600       70.4848584334      106.0277874051
O               185.7788203579       71.3090798029      105.1744111176
C               187.0932519694       68.3479463064      105.2343240404
H               184.6338900661       69.3228182531      104.1721374312
H               185.6554390375       68.5448373526      106.8307870098
H               187.9357667797       68.4574958049      105.9095426544
H               186.8996946962       67.2894334004      105.0819863056
H               187.3183525190       68.8178964988      104.2789075034
N               193.1327379929       70.0628258534      109.0137787200
C               191.8737086093       69.7591478689      108.3654038640
C               191.2496828366       68.5462879443      109.0506790727
O               191.8427954081       67.4901257778      109.2267376355
C               192.0556897379       69.5602912135      106.8438098307
C               190.7105691429       69.1786123989      106.2171794615
C               193.1482072723       68.5399773703      106.5504954720
C               190.7413804209       69.2104313124      104.6938803158
H               193.7032457158       69.2844435113      109.3068769789
H               191.2224627813       70.6237300141      108.5287225489
H               192.3738316757       70.5301734396      106.4435338749
H               190.4301059349       68.1809520405      106.5623835772
H               189.9550309169       69.8792615955      106.5812207779
H               193.2422759044       68.3846196467      105.4816681242
H               194.1073905687       68.8961556887      106.9207420632
H               192.9225773749       67.5944802935      107.0370228832
H               189.7390965567       69.0768637133      104.2986904145
H               191.1281721811       70.1656662124      104.3505907077
H               191.3743951262       68.4202068276      104.3044874149
N               187.4543341806       66.2303839966      109.4836558749
C               186.1899494065       65.8670914422      108.8724280130
C               185.0665569986       66.2945459780      109.8168884369
O               185.2036995737       66.2614474817      111.0367505345
C               186.1481308775       64.3632376254      108.5587896047
C               187.2361484188       64.0374717092      107.5276151823
C               184.7615067923       63.9902359908      108.0456763769
C               187.4729593981       62.5418540216      107.3516116657
H               187.6739618947       65.7342603306      110.3357086120
H               186.1021175738       66.4372715218      107.9434756505
H               186.3505898155       63.8188999483      109.4884343423
H               186.9455578447       64.4851391932      106.5754356711
H               188.1644989484       64.5132776480      107.8480272793
H               184.7596651073       62.9658700826      107.6862165630
H               184.0145613657       64.0879331275      108.8295965392
H               184.4779980780       64.6547081069      107.2317887171
H               188.3128884411       62.3754667956      106.6830687046
H               187.6972273876       62.0770546748      108.3084199336
H               186.6025709360       62.0529434091      106.9242626607
N               180.9334633859       60.5198224369      110.8117774832
C               181.4507949968       61.4768029902      109.8621602064
C               180.3694902462       61.8703380291      108.8473510697
O               179.4265562865       61.1380559400      108.5902044379
C               182.6353856573       60.8613328598      109.1041450562
C               183.7269747582       60.2660455131      110.0055870571
C               184.8404906308       59.6835312854      109.1348887186
C               184.2926237130       61.3010231820      110.9731038658
H               180.8943985120       59.5605452755      110.5021955907
H               181.7489986642       62.3717581661      110.4144186039
H               182.2460416674       60.0709056886      108.4588670635
H               183.0669340848       61.6383344570      108.4747091693
H               183.2930781279       59.4551954509      110.5991702083
H               185.5832085003       59.1858391245      109.7548182521
H               184.4383279388       58.9549847987      108.4365864082
H               185.3327152203       60.4739691394      108.5748026977
H               185.1132262028       60.8702666727      111.5422452147
H               184.6598527630       62.1728249330      110.4375427575
H               183.5365172887       61.6281435886      111.6832983150
N               180.6210985632       63.0237305478      108.2071693154
C               179.6389464145       63.6441003304      107.3357989311
C               180.0800496696       63.4739947204      105.8721115427
O               181.0443424230       64.0709003561      105.4115729427
C               179.5140795589       65.1364197220      107.6316134414
C               179.1359272338       65.4284906776      109.0727425375
O               178.9813967858       64.5531398567      109.9124189910
N               178.9938320762       66.7307491015      109.3487292835
H               181.3239026165       63.6399293323      108.5952733289
H               178.6854283485       63.1298225463      107.5027024566
H               180.4635280663       65.6282227795      107.4070747238
H               178.7616765137       65.5820039014      106.9802311584
H               178.7446481507       66.9993554898      110.2912994032
H               179.0108489313       67.4385766602      108.6186329350
N               179.3698926767       62.5854666458      105.1746470676
C               179.5797816816       62.3521896339      103.7575782241
C               178.6933611564       63.3098553151      102.9637068938
O               177.6812432768       63.7974437866      103.4594989411
C               179.2414217781       60.8855707839      103.4605885838
C               179.5953553425       60.4583074999      102.0375973822
C               179.1885298671       59.0100599913      101.7501402337
C               179.9520871017       57.9601111778      102.5483080019
N               181.3667465642       57.9118489118      102.1123973050
H               178.4852197400       62.2561232309      105.5500810090
H               180.6287003434       62.5521375273      103.5214828643
H               179.7920909326       60.2948835188      104.1931501667
H               178.1756341546       60.7352647667      103.6343204476
H               179.0538789943       61.0871750192      101.3314178437
H               180.6587191950       60.6290164824      101.8593478651
H               178.1272538670       58.9073666282      101.9726300282
H               179.3252616735       58.8067791052      100.6874225409
H               179.9091800894       58.1876080961      103.6135358165
H               179.5081363594       56.9820935106      102.3686018677
H               181.4391977046       57.5935860332      101.0717281231
H               181.7814191347       58.8452208983      102.1971180815
H               181.9321939477       57.2681191651      102.6840380981
N               179.0604154979       63.5778787218      101.7096048344
C               178.2194149917       64.3936170618      100.8527111387
C               177.3687601640       63.4815256092       99.9556950864
O               177.8235608007       62.4723598138       99.4391127120
C               179.0564504998       65.3288460820       99.9791474498
C               179.8046647497       66.4069854763      100.7738453369
C               180.7917952566       67.1299104931       99.8591098344
C               178.8453050467       67.4231557500      101.3909016655
H               179.9487084647       63.2425188976      101.3491096107
H               177.5438594119       64.9626189397      101.4978354338
H               179.7786446199       64.7203496953       99.4310627994
H               178.3968424402       65.8013193517       99.2477952771
H               180.3623757156       65.9224460163      101.5844057359
H               181.3168991733       67.9000463911      100.4194961575
H               181.5236762738       66.4362840129       99.4551454181
H               180.2574601733       67.5965294577       99.0349579464
H               179.3987779536       68.2000512936      101.9149050902
H               178.2385775353       67.9019304739      100.6248235796
H               178.1705178572       66.9634831533      102.1103965263
N               174.9198815070       66.9686840099      103.7875589274
C               175.7213065559       66.1045993935      104.6360177850
C               174.8175878504       64.9458904480      105.0796684564
O               173.7422803576       65.1682190224      105.6392047402
C               176.2693596863       66.8578421572      105.8443164780
C               177.4055560978       67.8127464309      105.4879075927
C               177.7517150065       68.6789515834      106.7288882411
O               176.8538744660       69.3841546662      107.2019742144
O               178.9290183047       68.5942890355      107.1817252255
H               174.4127251726       67.7148785590      104.2374049591
H               176.5430406959       65.7045966183      104.0351675591
H               175.4704375659       67.4322870679      106.3190772799
H               176.6279106011       66.1288765179      106.5772082737
H               178.2900797178       67.2638829732      105.1614586123
H               177.0871292302       68.4878040815      104.6913298614
N               175.2456604851       63.7337048392      104.7569082409
C               174.5566222546       62.5274221552      105.1518050345
C               175.4795842562       61.7576749284      106.0949952302
O               176.6871272177       61.9549402096      106.1285743369
C               174.1341131058       61.6705929018      103.9349751378
C               173.2529151855       62.4925378629      102.9964672194
C               175.3515460861       61.1296456044      103.1911400848
H               176.1650232912       63.6256135873      104.3325660201
H               173.6627997604       62.8423666826      105.7033441987
H               173.5537658482       60.8291168313      104.3289788045
H               172.8880746656       61.8676064647      102.1868833991
H               172.3989480227       62.9066745385      103.5277473789
H               173.8190567056       63.3210727065      102.5731548435
H               175.0324406841       60.5373262646      102.3392895303
H               175.9662681563       61.9502492410      102.8286189581
H               175.9427965714       60.5072023087      103.8565356082
N               174.8783208070       60.8370151425      106.8587104528
C               175.6391410872       60.1429878752      107.8771293636
C               175.1555980898       58.7078237355      108.0354604501
O               173.9702973639       58.4231739153      108.1132831477
C               175.5697847000       60.8937705183      109.2299483979
C               174.1549151901       60.9169242973      109.8026049674
C               176.5695940358       60.2885769851      110.2085032383
H               173.8664045105       60.7699372389      106.8704650360
H               176.6839622134       60.1613425432      107.5484513976
H               175.8829624495       61.9224443041      109.0124624893
H               174.1285547633       61.4949044725      110.7242118874
H               173.4675795260       61.3746368963      109.0943435538
H               173.8167141051       59.9075090955      110.0215886555
H               176.5634520123       60.8584989140      111.1327677340
H               176.3257773415       59.2529906880      110.4333093925
H               177.5710655108       60.3473965591      109.7893160459
H               177.6276412460       66.5664598403       90.6125312372
H               181.5886241813       67.0725125668       90.9106521818
H               184.6195579534       67.4491764583       91.9411401102
H               188.2105385097       69.2384905207       92.4365230085
H               198.0132848311       64.5608674973      107.2645244071
H               196.6960714858       63.6963231241      108.8822792470
H               191.9634754752       63.8456740776      110.5705770985
H               192.4656462355       61.1334310265      108.4713426287
H               188.4041997495       58.7004320307      109.7105941038
H               190.0047712843       55.7372954647      109.1826821046
H               186.9443045134       52.4912775503      106.8662238015
H               189.5794072376       52.2952524527      104.0884564610
H               190.4402664310       52.4333482719      101.2102022218
H               188.4560535538       70.7677870479       97.0044346009
H               185.8206774767       70.7737311167       96.2485445983
H               183.0373549565       71.5109838530       93.5549122263
H               186.1134735798       73.1915367417      100.8780281912
H               186.4825733622       70.8329723289      106.8721289175
H               193.6509695947       70.5410763218      108.4545716955
H               190.3075741511       68.5895987106      109.3831777978
H               188.1254361276       66.0632898515      108.9077203547
H               184.1938377982       66.6108144509      109.4449536976
H               181.4481132465       60.5209347675      111.5501095790
H               176.4106201216       63.7067648579       99.7789609922
H               175.4502840904       67.3704765856      103.1815590712
H               175.8171968984       57.9592371611      108.0791085541
