 108 
 
N                52.7650828945       56.9478137298       49.6930984862
C                51.6621152968       56.0815491631       50.0677316739
C                51.8663084566       54.6945761763       49.4473218460
O                52.5985432023       54.5022935382       48.4881155893
C                50.3163640771       56.6976873102       49.6468736143
C                50.2959301970       57.0792786306       48.1716678770
C                50.8017769247       58.5371863373       47.8889184940
O                50.7221403887       59.3724662163       48.8082742175
O                51.2022174265       58.7445995453       46.7239559408
H                53.1617154915       56.7791474002       48.7801298265
H                51.6808666071       55.9929004739       51.1621156040
H                49.5124432709       55.9979496942       49.8845259039
H                50.1772043449       57.6133764933       50.2311147384
H                50.9019884527       56.4065339795       47.5622214382
H                49.2758357101       57.0499766232       47.7826272040
N                51.1549951490       53.7286514009       50.0456461016
C                51.3209992337       52.3066309843       49.8260089605
C                49.9772029533       51.6621207691       49.4645551146
O                48.9221975519       52.2537981444       49.6498803922
C                51.8767143862       51.6665105293       51.1198002832
C                50.9124077721       51.8207707754       52.2639732343
C                50.9087070853       52.9845773163       53.0253245572
C                49.9994852866       50.8198116887       52.5677298588
C                49.9984224216       53.1537069623       54.0543425321
C                49.0932523792       50.9880144392       53.5996787281
C                49.0850680695       52.1552105438       54.3438731880
H                50.5200981958       53.9700555031       50.7944628635
H                52.0283609504       52.1883876528       48.9996745923
H                52.0678769345       50.6086453863       50.9390681367
H                52.8107707252       52.1711917739       51.3723199385
H                51.6442347296       53.7514515961       52.8258834465
H                50.0036522556       49.9041004617       51.9935572215
H                49.9992819327       54.0730481879       54.6222044344
H                48.3884494767       50.2030512461       53.8262760901
H                48.3853208147       52.2826601522       55.1564383873
N                44.9266405287       52.8761389536       51.2500825240
C                44.6117441149       53.7108588844       52.3911232305
C                45.7230068755       54.7672528487       52.4645782015
O                46.8722327870       54.4915275354       52.1764535388
C                44.6055853279       52.9026923290       53.6914274387
H                45.9178366283       52.7540245174       51.0794588942
H                43.6323845092       54.1621879199       52.2014300345
H                44.2928661262       53.5319975510       54.5186328047
H                43.9288740199       52.0591860841       53.5935884054
H                45.6087444219       52.5330498296       53.8938687608
N                45.3199779122       55.9864715978       52.8631494904
C                46.2447438080       57.1026800096       52.9100659953
C                46.8795128560       57.1472267343       54.3031845780
O                48.0735329518       57.0021175528       54.4897399108
C                45.5551576545       58.4142805821       52.5207745995
C                46.5623003366       59.5295850720       52.4428290548
C                47.5358265846       59.5249155143       51.4482683779
C                46.5623445536       60.5604799376       53.3689932100
C                48.4820526617       60.5251037366       51.3676929683
C                47.4967033416       61.5772767229       53.2964072155
C                48.4570009101       61.5682163948       52.2920500025
O                49.3827844093       62.5588260021       52.1831041071
H                44.3348153698       56.1657204533       52.9849253669
H                47.0584843183       56.8784844718       52.2089261070
H                45.0932256595       58.2734757182       51.5420526622
H                44.7690886326       58.6635796690       53.2367072339
H                47.5620186690       58.7303567572       50.7146133371
H                45.8182456155       60.5859736202       54.1505429775
H                49.2347845615       60.4998299601       50.5910069821
H                47.4763147319       62.3865154248       54.0130722568
H                49.2266472541       63.2297529086       52.8638913658
N                45.9918783120       57.2751678259       55.3109729689
C                46.4403353734       57.3827010199       56.6882042525
C                45.3438283621       56.8520971535       57.6218880459
O                44.9017743600       57.4963532552       58.5522172884
C                46.8483619497       58.8165711821       57.0518715217
C                47.8780857952       58.8172850763       58.1790187062
C                48.2649843496       60.2413503125       58.5746606609
N                49.4825362484       60.2239072428       59.3586716048
C                49.8246297435       61.0374620438       60.3506394532
N                49.0164336835       62.0036485963       60.7813534733
N                51.0189021503       60.8708170480       60.9106252715
H                45.0428194452       57.5528908180       55.1114166218
H                47.3201314006       56.7324871125       56.7756585324
H                47.2808199433       59.2840176771       56.1651022550
H                45.9606154344       59.3746219989       57.3514220343
H                47.4691371110       58.2904506540       59.0420794222
H                48.7661339137       58.2835450646       57.8329502422
H                48.4194343597       60.8387665622       57.6689717521
H                47.4488912903       60.6769552424       59.1515642950
H                50.1846570705       59.5500955456       59.0736973708
H                48.1000262385       62.1290885624       60.3877122553
H                49.2707036006       62.5627017434       61.5780858048
H                51.5771461747       60.0738329670       60.6285379988
H                51.3475188340       61.4825757143       61.6380675780
N                44.8756620959       55.6384951926       57.2628592519
C                43.9567237137       54.8941740324       58.0960433064
C                44.6264319162       53.5700907980       58.4956214160
O                45.6867486541       53.2240558083       58.0081285366
C                42.6390505081       54.6179352841       57.3362242935
C                41.4956245970       54.3687300739       58.3135543749
O                41.0606773868       55.2459709754       59.0383002751
N                40.9760126652       53.1239274501       58.2796474129
H                45.4334942154       55.0772871127       56.6313909481
H                43.7499379560       55.5106224340       58.9788697990
H                42.3874933604       55.5218361341       56.7790159235
H                42.7754055325       53.7806785808       56.6525502787
H                40.2810035426       52.8944313100       58.9751676648
H                41.5044293386       52.3578981404       57.8933527983
H                52.4882273691       57.8041723686       49.6940470285
H                49.9532538267       50.7433904841       49.0703963867
H                44.5796121884       52.0549826445       51.3736691209
H                44.1909201849       52.9727659808       59.1690697025
