 291 
 
N                28.3199588863       58.0608745769       14.8602014325
C                29.6491777503       58.6073475452       14.6694520964
C                30.1127908547       58.2609900994       13.2581660760
O                30.6540262723       59.0714920280       12.5066099979
C                30.6536214486       58.0443458166       15.6872444768
C                30.1723750128       58.1570474446       17.1416510925
C                31.9923581639       58.7542681679       15.4995164567
C                29.9416156220       59.5845276128       17.6302450371
H                28.0626670487       57.8535226001       15.8129442932
H                29.6199738155       59.7027794218       14.7453843986
H                30.8022809122       56.9813755056       15.4556301120
H                29.2591965503       57.5729167552       17.2817715600
H                30.9411595731       57.6989966917       17.7646881966
H                32.6913136927       58.4789933063       16.2842242246
H                32.4318452992       58.4843503016       14.5411974417
H                31.8555065764       59.8345193935       15.5111606108
H                29.4986579936       59.5795009156       18.6240180224
H                30.8792846445       60.1317897077       17.6942010485
H                29.2915278041       60.1526871174       16.9668040593
N                28.7575381202       60.1812596501       10.1963751905
C                28.8287868034       61.6250246025       10.3555104340
C                29.6910608038       62.3030530759        9.2681342107
O                30.5137532793       63.1768314507        9.5362323261
C                29.3715843889       61.9626583773       11.7397409864
C                28.3191558503       62.0177180910       12.8337062099
C                29.0036585983       62.2939355868       14.2092287588
O                29.9125829385       63.1459279585       14.2350666673
O                28.5934515492       61.6150574548       15.1766434543
H                29.2501962833       59.6525574692       10.9041695411
H                27.8143414395       62.0339496903       10.2299458105
H                30.1244103180       61.2183035703       12.0133306469
H                29.8924948060       62.9218675303       11.7060734869
H                27.6025143543       62.8240292171       12.6544320523
H                27.7835359066       61.0710595497       12.9048476781
N                29.9498476773       64.6657348916        7.1162410670
C                30.3583246796       66.0486185203        7.1088637112
C                29.9374794258       66.7816042208        8.3841550780
O                29.9013077669       68.0014230206        8.4465282500
C                29.7746906537       66.7435238865        5.8656076530
C                30.4770756981       68.0553687708        5.5342623106
C                29.8059521352       68.7667094892        4.3722570009
O                28.8914879589       68.2918708442        3.7192477603
N                30.3231092955       69.9793293514        4.1055362768
H                28.9532028994       64.4515485016        7.1903705265
H                31.4552946736       66.0539728294        7.0577508387
H                29.8632331677       66.0618838553        5.0181887685
H                28.7121682061       66.9311511772        6.0302939505
H                30.4496304210       68.7025832506        6.4121249825
H                31.5210849433       67.8648169401        5.2764998253
H                31.0378670743       70.3739384631        4.6891141985
H                29.9125866741       70.5368349557        3.3733256141
N                29.5547932851       65.9999498167        9.4100164886
C                29.1013779223       66.6141434858       10.6424547880
C                30.2615007867       67.2259368767       11.4446157454
O                30.1735398210       68.3372223238       11.9308047993
C                28.3293156202       65.6245904717       11.5013405655
H                29.7941261922       65.0141024148        9.4100464757
H                28.4562818451       67.4570578466       10.3644387801
H                27.8900760976       66.1382161711       12.3530569407
H                27.5440490141       65.1550229108       10.9143975143
H                28.9862474259       64.8516296532       11.8952601016
N                31.3576937398       66.4424214687       11.4743977038
C                32.5756569008       66.7169516084       12.2190604666
C                32.3486042443       66.4692254002       13.7223929610
O                31.7478957949       67.2904714506       14.4158261686
C                33.0666830001       68.1505441853       12.0276048148
C                34.4985581568       68.2620096180       12.5282508662
O                35.2392288931       67.2963953140       12.6354208294
N                34.9021618969       69.5157757846       12.7839845595
H                31.2498393676       65.4886882539       11.1606082652
H                33.3371390411       66.0323084281       11.8437653999
H                33.0306379266       68.4093603345       10.9674923600
H                32.4099693640       68.8250581015       12.5772035637
H                35.8205714715       69.6602732776       13.1748318016
H                34.2444485148       70.2739976146       12.7694015401
N                32.8047554659       65.3291568232       14.2374873447
C                32.4897467296       65.0318014370       15.6250572539
C                33.1488641616       66.0615814866       16.5370239582
O                34.3117543170       66.4181641562       16.4030361005
C                33.0681617210       63.6334159402       15.8483013116
C                34.2289234762       63.5875029973       14.8599284303
C                33.6731162854       64.3281926874       13.6456941654
H                31.4022888815       65.0608545403       15.7669573166
H                33.3837126027       63.4785716255       16.8792627667
H                32.2968609245       62.9053923550       15.5916390889
H                35.0662707320       64.1456981276       15.2775901636
H                34.5364396461       62.5729570469       14.6227721114
H                34.4639488141       64.8066359052       13.0661742423
H                33.0834022249       63.6555952917       13.0123025036
N                32.3631142915       66.5075444445       17.5220590418
C                32.8622998151       67.4081223429       18.5308807395
C                33.6004360050       66.6154545551       19.6027689187
O                33.4262072934       65.4068320114       19.7612953790
C                31.7013191039       68.1574584772       19.2394757084
O                30.8877471120       67.2393464588       19.9358882101
C                30.9263513061       69.0244558544       18.2537992241
H                31.3898095299       66.2223427369       17.5636605945
H                33.5480018169       68.1137930701       18.0500207630
H                32.1424976958       68.7944717075       20.0172392292
H                30.3373617000       66.7772814073       19.2574615280
H                30.1374537478       69.5564515189       18.7785742977
H                31.5927564539       69.7334134909       17.7724118579
H                30.4698851634       68.4069021003       17.4829139096
N                34.3561099810       67.3353109440       20.4319342106
C                35.0657052813       66.7295895986       21.5426484412
C                34.1503026704       65.7706328053       22.3001523481
O                34.5095574455       64.6458300108       22.6132427015
C                35.5561500619       67.8566881371       22.4771428031
O                36.1718822356       68.8200777755       21.6517401535
C                36.4915848603       67.3039090899       23.5452105505
H                34.6496139119       68.2783965080       20.2047377377
H                35.9274698716       66.1557591019       21.1767253986
H                34.6749610309       68.3099318878       22.9574632736
H                36.7445480171       69.3767910524       22.1953024743
H                36.7428800020       68.0810974428       24.2614277751
H                36.0113588791       66.4881099452       24.0772645597
H                37.3981950902       66.9225599391       23.0829985596
N                32.9851633053       66.3031577455       22.6991522481
C                32.0524084812       65.5517327558       23.5208350920
C                31.6411402878       64.2460052871       22.8385995700
O                31.7668768072       63.1610105390       23.3921790875
C                30.8334161117       66.4061531982       23.8418136905
H                32.6352487494       67.1427417700       22.2595510499
H                32.5758358454       65.2595637526       24.4399702940
H                30.1283590844       65.8296111933       24.4343781402
H                31.1358350493       67.2819740257       24.4085612098
H                30.3379464779       66.7208418129       22.9257501746
N                31.1155037923       64.3839073138       21.6155239281
C                30.6845117661       63.2192175188       20.8718727528
C                31.8035898185       62.1809346332       20.7977673392
O                31.5793308305       60.9833710316       20.9263680096
C                30.2560231331       63.6240595271       19.4610780717
C                28.9116561294       64.3451208499       19.4619535964
C                28.7146849441       65.1584439245       18.1510132356
O                29.5976785705       66.0258336364       17.9148326578
O                27.7094489445       64.9452526881       17.4673302819
H                31.0862731249       65.2799143955       21.1429364749
H                29.8459792090       62.7371288428       21.3952851642
H                31.0244867954       64.2753948767       19.0339121544
H                30.1924998005       62.7388127521       18.8232591400
H                28.0899779724       63.6359681537       19.5609841618
H                28.8642098315       65.0597462993       20.2876899483
N                33.0165059885       62.6849958364       20.5653294165
C                34.1760812588       61.8370488759       20.3786722281
C                34.4314295260       61.0276270331       21.6517576093
O                34.5147625496       59.8067720067       21.6323141693
C                35.4081968588       62.6937824835       20.0113780156
O                35.1877189807       63.4139795810       18.8169572250
C                36.6337006330       61.8112134840       19.8039901589
H                33.1202078374       63.6787246945       20.4036084582
H                33.9683871557       61.1211582892       19.5717711938
H                35.5834270712       63.3927529250       20.8422265079
H                34.5699137899       64.1396684322       18.9885270171
H                37.5082299451       62.4368543170       19.6577306874
H                36.7786832760       61.1579121293       20.6586370408
H                36.4879162481       61.2037037052       18.9159327690
N                34.5911570536       61.7513859749       22.7601554241
C                34.9031692819       61.0980275771       24.0143999582
C                33.8473867632       60.0469535133       24.3543379581
O                34.1675515696       58.9476564425       24.7962986832
C                35.0088255737       62.1059846153       25.1572306692
C                36.1656567344       63.1068358200       25.0181304667
C                36.1205148843       64.0752387954       26.2003385690
C                37.5234653774       62.4113113811       24.9606878570
H                34.4459024477       62.7542250269       22.7564052587
H                35.8393775873       60.5389712800       23.8901927767
H                34.0604565516       62.6457921024       25.2094953654
H                35.1264702669       61.5390910067       26.0829978021
H                36.0211612712       63.6717119413       24.0936261884
H                36.9082790513       64.8179307275       26.1115132737
H                35.1614876070       64.5856990296       26.2359088514
H                36.2551544193       63.5331932778       27.1327849592
H                38.3180484828       63.1522529831       24.9664236736
H                37.6510464652       61.7558011026       25.8184649793
H                37.6244420708       61.8175141019       24.0560198528
N                32.5810014497       60.4402224556       24.2072948014
C                31.4770467168       59.5173750450       24.3980571536
C                31.7305286942       58.2331310846       23.6095730945
O                31.7126101492       57.1303881213       24.1496301808
C                30.1623239006       60.1298848491       23.9431066929
C                29.0808597077       58.9930736649       23.8828483005
O                28.3425380791       58.8722163898       24.8778076786
O                29.0621353527       58.3019728918       22.8518017981
H                32.3627649947       61.3498126356       23.8185054151
H                31.4131023331       59.2327687920       25.4581249949
H                29.8433741016       60.9075831766       24.6371599528
H                30.2797538145       60.5461969807       22.9417904462
N                32.0032272117       58.4219702464       22.3215667607
C                32.1488681922       57.3070710326       21.4122635045
C                33.2181242685       56.3570607055       21.9531623919
O                33.0078310250       55.1572538682       22.0927067489
C                32.5390815302       57.8309250658       20.0384360432
H                31.8773203889       59.3320037341       21.8947777959
H                31.1976671111       56.7579198988       21.3708948175
H                32.6901192408       57.0094834223       19.3446733818
H                31.7567190372       58.4939434822       19.6796199361
H                33.4603961763       58.4007113773       20.1152674876
N                34.3892253915       56.9487782582       22.1863067888
C                35.5495375457       56.2299627904       22.6648887407
C                35.1651106756       55.3973823160       23.8866910683
O                35.2902474468       54.1775354995       23.8976640288
C                36.6797450770       57.2264891268       22.9989817819
O                36.8912829913       58.1170331014       21.9337664457
C                37.9530789349       56.4812102611       23.3828117720
H                34.4939315703       57.9499090918       22.0474861017
H                35.8888165330       55.5257834424       21.8907228471
H                36.3421832428       57.8594008586       23.8270713560
H                37.2799980873       57.6329335083       21.1880479923
H                38.7405901471       57.1898511632       23.6217148370
H                37.7854784248       55.8398080139       24.2456965473
H                38.2832615262       55.8485798900       22.5615646433
N                34.6685254200       56.1063723778       24.8991769774
C                34.3086480002       55.4947629066       26.1626399074
C                33.4707741084       54.2375854874       25.9305181904
O                33.7260703187       53.1707015813       26.4788019364
C                33.5720005385       56.5479433290       26.9936771733
C                33.0783416416       56.0781497838       28.3634241974
C                34.1179755531       55.3242241364       29.1825595881
N                35.3501285547       56.0685899314       29.3383698990
C                36.5356009510       55.5039473669       29.5288936166
N                36.6445076035       54.2069426072       29.7932598552
N                37.6171198386       56.2930439855       29.6260420460
H                34.4691396058       57.0934629491       24.7851781276
H                35.2363231401       55.1557634336       26.6461239110
H                34.2482181799       57.3986844512       27.0937091628
H                32.7186205246       56.8918675968       26.4047660956
H                32.7154182810       56.9477129463       28.9137378172
H                32.2432612478       55.3872871593       28.2424956592
H                33.6890515239       55.0806928034       30.1593025203
H                34.3272013115       54.3797094924       28.6816770830
H                35.2879520860       57.0693226846       29.2276182450
H                35.8563112866       53.5696478560       29.6770683799
H                37.5561352322       53.7788697472       29.7800256576
H                37.5663326777       57.2394041023       29.2822779346
H                38.5267164528       55.8651023779       29.6275977963
N                32.4116764102       54.3977889180       25.1347958621
C                31.4883264604       53.3037790860       24.9185827353
C                32.2312637063       52.0546539566       24.4406650390
O                31.9499871140       50.9380027564       24.8652973467
C                30.4203458722       53.7060394681       23.8986185050
C                29.4005828967       54.6536434365       24.5321219315
C                28.3387017399       55.1637159301       23.5548197820
N                27.5174114977       54.1066399386       23.0035817346
C                27.6527820718       53.5269141862       21.8132646633
N                28.6314409348       53.8463570642       20.9733301023
N                26.7808220262       52.5999308342       21.4230569971
H                32.2129818973       55.2945046191       24.7071640776
H                31.0264422735       53.0362699198       25.8805732044
H                30.9349260380       54.1927074216       23.0682882436
H                29.9277202351       52.8005606052       23.5411884217
H                28.9174127827       54.1483789564       25.3697585373
H                29.9133043156       55.5329271134       24.9228787123
H                27.6931742324       55.8627787151       24.0907076138
H                28.8076532394       55.7456322261       22.7611756697
H                26.7923380610       53.7609467136       23.6175383211
H                29.3563768974       54.4890212785       21.2384956194
H                28.6868880674       53.3525239481       20.0887149750
H                25.9715273685       52.3663526956       21.9726204683
H                26.8990688495       52.2190913762       20.4893136049
N                35.5793893933       51.4062012751       24.5479756240
C                36.5280399924       50.9336083710       25.5324956102
C                35.8310749201       49.9684285455       26.4820537379
O                36.3037109857       48.8820950480       26.8117000022
C                37.0665727336       52.0857361996       26.3697707921
C                37.7070284641       53.2386813954       25.5180732027
O                38.2654817433       52.9248185425       24.4543164614
O                37.6104260243       54.3759134782       26.0158209424
H                35.6037393524       52.3909055893       24.3176101731
H                37.3524858753       50.4099860693       25.0274342877
H                36.2696620106       52.5165728460       26.9799041824
H                37.8417152535       51.7081394517       27.0417794126
N                34.6791643578       50.4424090980       26.9564044433
C                33.9573265463       49.7874299600       28.0173836879
C                33.4257043900       48.4470747907       27.5344734632
O                33.4868052085       47.4465720502       28.2459510087
C                32.8216333373       50.6793060864       28.4821571846
C                33.3219694129       52.0130175087       29.1335512447
O                34.5486957490       52.1507745531       29.3278182833
O                32.4280760336       52.8226929267       29.4239763203
H                34.3936657809       51.3860916979       26.7323372536
H                34.6360696998       49.5907188637       28.8612297192
H                32.1895313360       50.9494751105       27.6345352769
H                32.2066525656       50.1630918858       29.2212861437
H                27.7078617962       58.6468158520       14.5568699727
H                29.9820081830       57.3358210516       12.9018542384
H                27.8975464897       59.9176958956       10.2271736135
H                29.5896893782       62.0346578125        8.3101739731
H                30.2129426577       64.2706801546        6.3515759206
H                32.9653709922       52.1367697641       23.7666149763
H                35.7137259745       50.9743978457       23.7698371523
H                33.0181371974       48.3692783911       26.6246181431
