 301 
 
N                97.1983525792       55.1716101379      203.9727799076
C                96.2482865137       54.9762579560      202.8426143981
C                97.0871148917       55.2083209250      201.5665843380
O                98.2042321625       55.6973707358      201.6816599559
C                95.1084780623       55.9861763994      202.9212753428
H                96.8220849299       55.8021646632      204.6928670722
H                97.4853144014       54.2859092269      204.4142771847
H                98.0438421890       55.6118057310      203.5154959862
H                95.8466282963       53.9616173478      202.8350351825
H                94.4223353480       55.8336292400      202.0934735975
H                94.5479559318       55.8485005150      203.8424198836
H                95.4882418344       57.0047441549      202.8785300635
N                96.4731815598       54.8954539927      200.4302460048
C                97.1745801851       54.8880853460      199.1647765552
C                96.4773233235       55.7535421704      198.1161696425
O                96.6092068518       55.5373718652      196.9175647392
C                97.4050899228       53.4554871197      198.6510370636
C                96.1826686412       52.7365754628      198.0621045855
C                95.1004933311       52.2798884220      199.0231540029
O                94.7970726882       52.8689125508      200.0591960954
N                94.4481622810       51.1797647017      198.6434514118
H                95.6566928896       54.2573654475      200.4467050865
H                98.1599887447       55.3451079924      199.3402994934
H                98.1488946244       53.5210524140      197.8556921051
H                97.8301121790       52.8649114360      199.4634756013
H                95.7010431483       53.3953561774      197.3349008238
H                96.5473697191       51.8640245768      197.5206336743
H                94.6583973687       50.6908106692      197.7899993946
H                93.6820381387       50.8467219488      199.2088822026
N                95.7726317970       56.7886701408      198.5887442659
C                95.0388248824       57.6928752934      197.7151193715
C                95.9406580262       58.0886611746      196.5460821073
O                95.5412039372       58.1045951780      195.3850735967
C                94.5460573584       58.9419470500      198.4754812569
C                93.8330399311       59.8859036754      197.5070221633
C                93.5989519267       58.5612116884      199.6131648873
H                95.6450136875       56.8886302397      199.5860213307
H                94.1727540279       57.1720547560      197.2853024076
H                95.4134164214       59.4643802002      198.8913518840
H                93.5182040486       60.7855788663      198.0292313650
H                94.4829447786       60.1798828117      196.6861956458
H                92.9494299807       59.4109537853      197.0873544527
H                93.1769923817       59.4662919314      200.0418551212
H                92.7797525580       57.9506714221      199.2425644832
H                94.1069468643       58.0260455566      200.4099499408
N                97.1877669290       58.4068014951      196.8971290160
C                98.2363665767       58.7350406106      195.9538234861
C                97.9855320872       58.0305783871      194.6219349261
O                98.0403034884       58.6369823987      193.5549895120
C                99.6499974962       58.2963671909      196.4230381024
C                99.8873389555       58.5218741614      197.9206250985
C               100.6721797556       59.0604184148      195.5804670558
C               101.2851441500       58.0772350615      198.3429593734
H                97.4245966659       58.4841272083      197.8760928999
H                98.2416058055       59.8181196090      195.7722297113
H                99.7690830751       57.2273457460      196.2194150802
H                99.7473958635       59.5763795617      198.1652897752
H                99.1780780318       57.9249847676      198.4981246821
H               101.6555501061       58.6123062736      195.6743396848
H               100.3954590528       59.0365894594      194.5292799828
H               100.7276021835       60.0999056257      195.8963284234
H               101.3630646940       58.0748892210      199.4268175048
H               101.4826891572       57.0718537572      197.9780563594
H               102.0496580631       58.7408899151      197.9514940372
N                97.8207039220       56.7113594977      194.7157070045
C                97.8713251537       55.8081764670      193.5935660356
C                96.6561924483       55.9039327626      192.6684130643
O                96.7700869685       55.6738382079      191.4701977987
C                98.0053666567       54.3702218949      194.1012412058
C                99.3141321385       54.1708742036      194.8658295309
O               100.0325919217       55.0932092370      195.2092370995
N                99.5772199215       52.8929215270      195.1756417037
H                97.6647855753       56.2843260579      195.6239106913
H                98.7505538227       56.0588078630      192.9865023931
H                97.1744405917       54.1521806121      194.7753078524
H                97.9652879146       53.6884785616      193.2514740954
H               100.4505552811       52.6769305028      195.6315808775
H                99.0287831699       52.1345486785      194.8075557547
N                95.4834188696       56.1767722946      193.2540078166
C                94.3008708925       56.3529637502      192.4339990209
C                94.3888867004       57.6713554234      191.6625141430
O                94.1189601273       57.7577670661      190.4734623011
C                93.0008568180       56.1884518240      193.2510294589
O                91.9965786341       55.8597838647      192.3140702079
C                92.6250220092       57.4166119650      194.0746589735
H                95.4725874187       56.5479213079      194.1995545728
H                94.2970651895       55.5614105766      191.6733721446
H                93.1645496415       55.3270300576      193.9210594317
H                91.1384222696       55.8601747696      192.7577053533
H                91.7633729915       57.1867994825      194.6973879407
H                93.4476013578       57.7226865759      194.7132770167
H                92.3630030041       58.2393744391      193.4137473817
N                94.8416230512       58.7244273875      192.3634251946
C                95.0903311626       59.9544269283      191.6414430454
C                96.1580604494       59.7072670929      190.5709689680
O                96.0634769839       60.1810048625      189.4448474623
C                95.5244841981       61.1006026032      192.5528001850
C                95.4359802947       62.3829826063      191.7263509173
O                94.3644134829       62.8610048718      191.3975098022
N                96.6090872437       62.9341915776      191.3860762863
H                95.1005255240       58.6560447274      193.3392790236
H                94.1709551750       60.2428733574      191.1126161604
H                94.8209604594       61.1782688506      193.3826044008
H                96.5302060262       60.9273211166      192.9333735516
H                96.6033452606       63.7369401178      190.7760356631
H                97.4934244737       62.5065969329      191.6001172987
N                97.1843186415       58.9524005878      190.9671388175
C                98.2518453520       58.6309213144      190.0487712510
C                97.6783957867       57.9908829187      188.7850492837
O                98.0253163068       58.3848499265      187.6812902799
C                99.2960927460       57.7189189363      190.6960256577
O               100.4307593932       57.7197880081      189.8672264375
H                97.3337021837       58.7254623375      191.9516619512
H                98.7661995773       59.5457306869      189.7199421706
H                99.5315174774       58.1228184244      191.6897766892
H                98.8796297849       56.7078823813      190.7966301692
H               101.1409834507       57.2224628983      190.2915724283
N                96.7851794102       57.0173498892      188.9578919176
C                96.1650461711       56.3623751438      187.8143802988
C                95.7166289702       57.4283958346      186.8154898174
O                96.0508005670       57.4045965220      185.6363464105
C                95.0307019067       55.4712225284      188.3293026856
C                94.2222955876       54.7101389708      187.2671749297
C                93.2041383898       55.6017579182      186.5592345921
C                95.1199735687       54.0156909829      186.2453386904
H                96.6059353047       56.6187474034      189.8744240562
H                96.9187162114       55.7546922086      187.2961078080
H                95.4971580879       54.7435727631      188.9976071807
H                94.3506604182       56.0855282368      188.9223258562
H                93.6612909561       53.9409348669      187.8096844024
H                92.5434202035       54.9948155663      185.9449718621
H                92.6007476822       56.1461934867      187.2815376892
H                93.6998261016       56.3164840410      185.9081777024
H                94.5258937281       53.3664662082      185.6073968434
H                95.6107111644       54.7490867188      185.6095494406
H                95.8766671423       53.4117050863      186.7397783675
N                94.9333208902       58.3928356527      187.3156812709
C                94.4952429632       59.4843169630      186.4712802238
C                95.6983675308       60.1622397059      185.8063655687
O                95.7576348446       60.3604269504      184.5942365800
C                93.6936227275       60.5003932204      187.2889210880
O                93.3505729325       61.5676013044      186.4377105992
H                94.6829425575       58.3952969685      188.2948301246
H                93.8654745382       59.1008319468      185.6564287525
H                92.7992495583       59.9967886886      187.6790125806
H                94.3058732656       60.8469943849      188.1314757178
H                92.7575956453       62.1711544110      186.9026020721
N                96.6747159758       60.5245315175      186.6313849930
C                97.8440916736       61.1947749422      186.1126458008
C                98.6200631379       60.3539403055      185.0964975698
O                99.3662806797       60.9129750724      184.2898126976
C                98.7868202961       61.6412802272      187.2278537158
C                98.1842688345       62.6856420902      188.1789146233
C                99.2713799692       63.1480484214      189.1490485429
C                97.6229024163       63.8795869373      187.4083750881
H                96.6050440431       60.3588007009      187.6298524310
H                97.5039473946       62.0726957580      185.5486129487
H                99.0960749318       60.7552327264      187.7842224504
H                99.6695261759       62.0657709070      186.7454058020
H                97.3703283475       62.2224484833      188.7454618564
H                98.8808712625       63.9023698512      189.8260108677
H                99.6585359323       62.3133147676      189.7277159198
H               100.0954932661       63.5890391401      188.5951219666
H                97.4576633802       64.7278346690      188.0672663465
H                98.3271654483       64.1956867453      186.6421812024
H                96.6755251648       63.6285992201      186.9376986239
N                98.4609305989       59.0381559415      185.1203248889
C                99.1151381636       58.1941843519      184.1506586603
C                98.4711971945       58.3771668621      182.7802892187
O                99.1470408003       58.3229835696      181.7551526733
C                99.1011526194       56.7304008361      184.5865949744
C                99.9617995168       56.4555327161      185.8282528019
C                99.8272187402       54.9816432226      186.2055161695
C               101.4295193114       56.8031540602      185.5883823736
H                97.9112528862       58.5965383538      185.8465036638
H               100.1501879007       58.5379517782      184.0290248547
H                98.0653308898       56.4534448948      184.7896871179
H                99.4645115527       56.1240576677      183.7549374606
H                99.5911993133       57.0694061778      186.6537637078
H               100.3662195812       54.7758695350      187.1258360910
H                98.7826374080       54.7155359572      186.3485997624
H               100.2331458279       54.3534883378      185.4163006295
H               102.0357678174       56.4503395209      186.4175904374
H               101.7860479128       56.3356346894      184.6730752284
H               101.5615179805       57.8793516614      185.5142189733
N                97.1573953948       58.6189576899      182.7588167066
C                96.5478132276       59.0115104599      181.5075855414
C                97.0939963599       60.3831291571      181.0945147423
O                97.4373943683       60.6034899994      179.9363390856
C                95.0102309128       58.8993149787      181.5147172984
O                94.6722055319       58.3799110979      180.2448054489
C                94.2908079674       60.2107406411      181.8046138431
H                96.6307329278       58.7195061372      183.6187193790
H                96.8884083150       58.3094453360      180.7332582102
H                94.7510441171       58.1601863359      182.2920441768
H                93.7193170328       58.4592292100      180.1093601533
H                93.2152735801       60.0532926192      181.7730032220
H                94.5574055512       60.5667860604      182.7939632956
H                94.5574613589       60.9601025387      181.0627767298
N                97.2561606498       61.2805983620      182.0719557357
C                97.9177700979       62.5308517299      181.7615835423
C                99.2979315317       62.2765222544      181.1414849562
O                99.7587111116       63.0681110661      180.3262916590
C                98.0737756458       63.4261645805      182.9895945464
C                96.7354446300       64.0253775646      183.4488508769
C                96.3500923914       65.1408381825      182.4914984946
O                95.8638125339       64.9353168689      181.3915203407
N                96.6186359837       66.3800705770      182.9405992832
H                96.9152966733       61.0907172683      183.0066188300
H                97.3335423216       63.0667236864      180.9990144176
H                98.5359575393       62.8391954363      183.7829333922
H                98.7587879934       64.2324792415      182.7207836103
H                95.9605679537       63.2580796431      183.4352790811
H                96.8322054569       64.4183031255      184.4601160534
H                97.0722477526       66.5365143127      183.8234327514
H                96.4828977584       67.1733669264      182.3335043089
N                99.9575805331       61.1962898563      181.5769023092
C               101.3237466057       60.9674865120      181.1515746813
C               101.3922816593       60.3098966848      179.7690421293
O               102.4112004741       60.3378789085      179.1015093325
C               102.1345438738       60.1755911384      182.1724739786
C               102.6976397317       61.0808361864      183.2633783006
O               102.8124351830       62.2889198464      183.1300694299
N               103.1004319438       60.4320216968      184.3624932692
H                99.6372402447       60.7930543017      182.4545300262
H               101.8023256209       61.9501636915      181.0304263921
H               101.5227389133       59.3836080002      182.6002976655
H               102.9872459480       59.7232709514      181.6592831689
H               103.5222016704       60.9514322302      185.1161071989
H               103.0589994336       59.4294432697      184.4321204588
N               100.2689014895       59.6934942941      179.3775364995
C               100.0622766490       59.2570784272      178.0118954060
C                99.8832074372       60.5019334674      177.1333137046
O               100.5307214858       60.6498501041      176.1002745052
C                98.8703905123       58.3038876099      177.8918553948
C                99.2854886133       56.8657892329      178.1972094965
O                99.3843172071       56.0278813556      177.3135488423
N                99.5672773428       56.6017183520      179.4775916791
H                99.4659858759       59.6799599063      179.9930888296
H               100.9731847880       58.7583972309      177.6578493559
H                98.0673741161       58.6307670429      178.5530697687
H                98.5039451464       58.3172411238      176.8646280575
H                99.8525525338       55.6645430546      179.7133389976
H                99.4525078407       57.2781228747      180.2218042850
N                99.0749535715       61.4502720301      177.6028800458
C                99.0314752713       62.7289346869      176.9171510577
C               100.4438694147       63.3110113994      176.8507231462
O               100.8704371624       63.8271262765      175.8219497685
C                98.0649707239       63.7074024081      177.5837975298
C                96.6478653157       63.6889735436      176.9930555718
C                96.6284888010       64.2732952179      175.5812007213
C                96.0360775491       62.2898644374      177.0058244461
H                98.4787505599       61.2996393000      178.4089330244
H                98.7377815802       62.5635746362      175.8729887044
H                98.0255046689       63.4833826905      178.6499541060
H                98.4661345759       64.7165207836      177.4817548862
H                96.0405680790       64.3352982303      177.6352288120
H                95.6057505480       64.3716692417      175.2273456076
H                97.0919542257       65.2572573712      175.5629517832
H                97.1638317042       63.6343018343      174.8831176324
H                94.9966670249       62.3385412213      176.6915410839
H                96.5608919279       61.6250080357      176.3242935588
H                96.0727192934       61.8615203685      178.0040485499
N                92.9033957096       68.5543798283      189.9597030457
C                92.8340530133       67.4012078698      190.8485946927
C                93.8999271592       67.4579025962      191.9347248958
O                93.6373112256       67.1192678828      193.0849295731
C                92.9914613712       66.1739033216      189.9404310903
C                93.6152215200       66.7467102476      188.6704522372
C                92.9775596024       68.1286779624      188.5756688736
H                91.8703702044       67.3974247640      191.3703182847
H                93.5949170399       65.3995054631      190.4100484877
H                92.0091160330       65.7551606876      189.7252318798
H                94.6939023854       66.8547937436      188.7774091088
H                93.4048873490       66.1422928322      187.7931304078
H                93.5709064975       68.8131127947      187.9798754118
H                91.9657220198       68.0579859388      188.1625662457
N                92.3839583471       66.8579012126      195.7848145196
C                92.7075990369       65.7754129800      196.6880902845
C                92.6976484308       66.2164732648      198.1520217380
O                92.2970196874       65.4736490176      199.0377114157
C                94.0976670099       65.2135205018      196.3850537436
C                94.2271989678       64.5474962617      195.0101372478
C                95.6978576947       64.2112258582      194.7737218852
C                93.3585258680       63.3003096784      194.8770274501
H                92.9219832293       66.9442257924      194.9313800082
H                91.9476235085       64.9862497848      196.6064368172
H                94.8116238018       66.0390048480      196.4427385920
H                94.3460412187       64.4906555475      197.1649244994
H                93.9197476790       65.2608246057      194.2422508690
H                95.8277057139       63.7953110421      193.7796762461
H                96.3013464984       65.1113342945      194.8641513611
H                96.0463216126       63.4872390065      195.5064830015
H                93.4135243801       62.9254115623      193.8581221457
H                93.6881981505       62.5253196720      195.5657359663
H                92.3162783673       63.5228494993      195.0877345687
H               101.0377505563       63.2751691335      177.6544771643
H                92.1250826836       69.0051986781      189.9911863463
H                94.8228644434       67.7729946032      191.7135828676
H                91.5294323862       66.7778406502      195.5139350471
H                93.0230094626       67.1285153921      198.4016601906
