 412 
 
N                21.7362951084       22.3192266910       44.4531894353
C                20.7631770668       22.7532133745       45.4284547062
C                21.4925395885       22.8673048735       46.7677015915
O                21.9817057409       21.8928544493       47.3251883839
C                19.6467864705       21.7001035938       45.5496874489
C                18.6345373751       22.1316964196       46.6042814890
C                18.9771520668       21.4435419873       44.2043193065
H                22.1629928674       21.4182389955       44.6628516966
H                20.3653379117       23.7243943687       45.1189239064
H                20.1364537575       20.7816242109       45.8864702176
H                17.8188517768       21.4154633368       46.6589162817
H                19.1073915344       22.1888986645       47.5818994803
H                18.2256738425       23.1109163171       46.3684205381
H                18.2494137739       20.6442423778       44.3082363349
H                18.4660127158       22.3405268025       43.8646343701
H                19.7148084448       21.1547020326       43.4600293482
N                20.8169999213       24.5434386058       50.5406246739
C                19.9132043219       25.0963176822       51.5320621361
C                20.6506639692       25.0685837578       52.8721602675
O                21.1611992106       24.0382815625       53.2975857137
C                18.6194087799       24.2749797982       51.6410409200
C                17.6534197474       24.8228738492       52.7019982442
C                17.0997745886       26.1912932760       52.3072027987
C                16.4951524429       23.8475075069       52.9188330310
H                21.2727103470       23.6665944870       50.7728247302
H                19.6905047126       26.1220795495       51.2290239255
H                18.1315494035       24.2676829734       50.6639962307
H                18.8980444595       23.2504903912       51.9009737571
H                18.2017860083       24.9226294517       53.6469979808
H                16.4024247570       26.5471606758       53.0617682595
H                17.8888829577       26.9325700773       52.2190979348
H                16.5713571823       26.1387877349       51.3562438872
H                15.8937695474       24.1551706280       53.7708657188
H                15.8509827423       23.8397453548       52.0427020595
H                16.8587372538       22.8404036352       53.1046494186
N                20.7106826055       26.2347768570       53.5115793830
C                21.3794634574       26.4180571783       54.7896208762
C                20.4655809632       27.3017938104       55.6398091953
O                20.0451348035       28.3656217734       55.1955759788
C                22.7323115767       27.1073670760       54.5158341455
C                23.6192776376       27.2929890755       55.7516706174
C                24.6484003201       28.4258731152       55.6026814347
C                25.9388846015       28.1237013683       54.8347037082
N                25.7533227255       27.9375352550       53.3635850509
H                20.3165627213       27.0769422819       53.1034692550
H                21.5130601963       25.4432478652       55.2632801162
H                23.2279767612       26.4890633640       53.7650970838
H                22.4914445173       28.0835400196       54.0895498799
H                22.9776714779       27.5534595188       56.5969647933
H                24.1127345672       26.3572926923       56.0150113644
H                24.1389282834       29.2928694358       55.1823396794
H                24.9582145446       28.7168480489       56.6083835448
H                26.6120184796       28.9701182033       54.9809928803
H                26.4112942458       27.2307379369       55.2445368830
H                26.6697766904       27.8489062013       52.8721661762
H                25.2101640126       27.0832637107       53.1783653856
H                25.2447502677       28.7385331356       52.9625268400
N                20.1502134026       26.8434339563       56.8549417373
C                19.4164320404       27.6830768142       57.7769119312
C                19.9232505089       27.4756630630       59.1895393921
O                20.4476156877       26.4234335298       59.5512274744
C                17.8890715429       27.4861190352       57.6851676310
C                17.3371050824       26.1788620917       58.2803686183
C                16.8514549794       26.3972543053       59.7143530291
C                16.1816340860       25.6669035126       57.4124794038
H                20.5010914874       25.9521540764       57.1910020590
H                19.6172571789       28.7243341664       57.4978739198
H                17.4300451957       28.3428171566       58.1821590536
H                17.6467788695       27.5455355500       56.6222431375
H                18.1432408056       25.4374258953       58.2920889933
H                16.5201821498       25.4639104804       60.1659111737
H                17.6393458636       26.8121982002       60.3396992665
H                16.0176558705       27.0964789007       59.7221833699
H                15.5715219876       24.9538224590       57.9614444326
H                15.5403670323       26.4980721830       57.1292690675
H                16.5556040465       25.1992241408       56.5052407809
N                18.1268297421       32.6897167309       60.0894107990
C                18.6708494804       32.9645554274       58.7721186834
C                18.4141397872       31.7528525756       57.8699778880
O                18.5509206585       30.6157383959       58.3061602920
C                20.1984942097       33.1723446754       58.8597045357
C                20.8746575838       33.2427903335       57.5000622734
C                22.4198731114       33.4103488279       57.6001487486
O                23.0700848031       32.7486531257       56.7538798701
O                22.8879583834       34.2072075644       58.4220400261
H                18.2989830297       31.7618476782       60.4661138128
H                18.1839317167       33.8655391762       58.3883009649
H                20.4120926472       34.0852954163       59.4220542930
H                20.6196662864       32.3371004641       59.4274149104
H                20.6863982525       32.3350306629       56.9240806577
H                20.5051417279       34.1079644777       56.9413760412
N                18.0955746736       32.0085106704       56.5969005811
C                18.0538473344       30.9978605037       55.5582617520
C                18.6666311441       31.6165797863       54.3037267947
O                18.4900527889       32.7958266985       54.0157592587
C                16.6131619454       30.4960578634       55.2838702823
C                15.6604380572       31.6616623071       55.0348614158
C                16.5969772229       29.5174297904       54.1111192724
H                18.0176090704       32.9576242069       56.2581895052
H                18.6563525932       30.1463915829       55.8852923225
H                16.2879089270       29.9677389178       56.1876101891
H                14.6816935871       31.2811184013       54.7560875487
H                15.5582190606       32.2702015718       55.9303319837
H                16.0256504162       32.2894480739       54.2251299198
H                15.6248923459       29.0355868617       54.0332299711
H                16.7717571590       30.0317924169       53.1682486750
H                17.3544417363       28.7467225981       54.2342037306
N                19.4043814854       30.7786482389       53.5751568103
C                19.9394217247       31.1202919632       52.2757705329
C                19.9394572175       29.8480296935       51.4258597626
O                20.0007715087       28.7310194592       51.9210959917
C                21.3477089199       31.7495519695       52.3531134025
C                22.2450782294       31.0665798367       53.3814964805
C                23.6625237434       31.6449968257       53.3869728801
C                23.6860241328       33.1557022102       53.6480461763
N                24.6385345580       33.4908144148       54.7387550876
H                19.5665464970       29.8258059075       53.8900744936
H                19.2613240560       31.8531284489       51.8235688642
H                21.8060689843       31.6985877259       51.3646227487
H                21.2160362739       32.7971377980       52.6167624036
H                21.8132728878       31.1834820892       54.3782196650
H                22.2734096453       30.0009394543       53.1507825298
H                24.2037324151       31.1602495471       54.1979314610
H                24.1571911500       31.4277311164       52.4399343645
H                23.9662334447       33.6930400743       52.7426998169
H                22.7069207121       33.5051303372       53.9795293232
H                24.7973296640       34.5016969674       54.7707510225
H                24.1727037938       33.2018770969       55.6618561824
H                25.5421692116       33.0121586125       54.6424371915
N                19.9053399267       30.0738896604       50.1106784409
C                19.7696499746       29.0211610468       49.1277027506
C                20.1890691307       29.5737835767       47.7678156560
O                20.0326354066       30.7541378758       47.4889961184
C                18.3092957114       28.5636698657       49.0039873913
H                19.8040279531       31.0099256203       49.7375634500
H                20.3778498179       28.1678297906       49.4311901426
H                18.2453905132       27.6979801823       48.3515986009
H                17.9210880942       28.2860811641       49.9797994162
H                17.6890767352       29.3669079716       48.6135616349
N                19.9597209145       27.8943369669       43.4977606474
C                19.4900327121       26.8769683075       42.5797484693
C                20.2982309832       27.0692007206       41.2917275523
O                20.1867940469       28.0476311119       40.5653421710
C                17.9605545842       26.9695477750       42.3870555541
C                17.4662055482       25.8388228658       41.4722489856
C                17.5341234455       28.3434768922       41.8714382100
C                17.0764165629       24.5864622729       42.2473420171
H                19.9883025283       28.8346465924       43.1351746422
H                19.7431849037       25.9111416879       43.0294072565
H                17.5198834591       26.8324236431       43.3825026553
H                16.5943834660       26.1789094370       40.9120600304
H                18.2323976489       25.5843255098       40.7349178002
H                16.4628318498       28.3516145000       41.6923560231
H                17.7564479721       29.1153066379       42.6039344288
H                18.0453731830       28.5845631589       40.9434344635
H                16.7418258690       23.8214395946       41.5513876711
H                17.9230621704       24.2062889522       42.8138262376
H                16.2619644203       24.8077284607       42.9347263539
N                14.7176436774       25.8456631366       37.7175537417
C                13.6572018376       24.8633258146       37.8635348381
C                12.4153926869       25.6779977570       38.2610849264
O                12.5246764627       26.5309420121       39.1375009602
C                14.0619132661       23.8191802716       38.9161258385
C                15.5142110723       23.3069722067       38.6291402801
O                16.4400810253       24.0537240840       38.9966166450
O                15.6620702688       22.1918154988       38.0957732313
H                14.9267985536       26.3655567571       38.5592608691
H                13.5334344860       24.3740966090       36.8942427150
H                14.0546732008       24.2750314712       39.9101315322
H                13.3616402088       22.9876289963       38.8828324150
N                11.2619097729       25.4858981570       37.6055010213
C                10.1896284654       26.4802253496       37.7046247746
C                 9.2728540048       26.2220183325       38.9137216169
O                 9.5216691073       26.7095905901       40.0028498833
C                 9.5499270830       26.4366151475       36.3168133362
C                 9.7265133121       24.9874673486       35.8585596711
C                11.0451851724       24.5575776294       36.5058293339
H                10.6592940073       27.4469334567       37.9227917835
H                 8.5170457476       26.7719594879       36.3043722520
H                10.1286520698       27.0826312670       35.6583597884
H                 8.9156690474       24.3350341967       36.1790098414
H                 9.7822763032       24.8970587034       34.7766638283
H                11.0131116217       23.5284556021       36.8736151138
H                11.8616511704       24.6225244539       35.7816637900
N                 8.1888812977       25.4544275425       38.7058982447
C                 7.1966706933       25.2303894848       39.7432466927
C                 7.8789959822       24.9123896934       41.0794493894
O                 7.5933350953       25.4558732736       42.1290456782
C                 6.2777641957       24.0684306636       39.3320612844
O                 5.3229459412       23.8939589330       40.3466740542
H                 7.9901552773       25.1031234900       37.7817322014
H                 6.5871244294       26.1299217341       39.9015816181
H                 5.7898223293       24.3239862358       38.3811582068
H                 6.8753219370       23.1565612860       39.1873143437
H                 4.7639529808       23.1358175099       40.1343005352
N                 8.7957856021       23.9377317129       40.9807984905
C                 9.5040126856       23.4066652559       42.1176947506
C                10.5689910643       24.3750963735       42.6258979601
O                10.7391703814       24.5598881217       43.8278095707
C                10.1340525209       22.0801720748       41.7100329321
O                11.0081797265       22.3149650702       40.6239838858
H                 8.9049347205       23.4147854325       40.1252236829
H                 8.8179106100       23.2124672198       42.9518344362
H                10.6527722806       21.6389741077       42.5680884289
H                 9.3333213832       21.3844589940       41.4359168137
H                11.1045864970       21.4777621123       40.1579281390
N                11.2783461377       25.0233209349       41.7075483343
C                12.3331312533       25.9251151691       42.1160982117
C                11.9250292048       26.7390715851       43.3374525791
O                12.6562792075       26.8524054241       44.3171219632
H                11.2422149200       24.7542667578       40.7360583957
H                13.2456166296       25.3715081551       42.3641615828
H                12.5475966330       26.5946518673       41.2802871845
N                10.7543931912       27.3706585919       43.2384281926
C                10.2690384673       28.2635210525       44.2777685968
C                10.3293870134       27.6351514290       45.6741244352
O                10.7256912982       28.2532383782       46.6500508765
C                 8.8210927459       28.6431350805       43.9840587628
H                10.1962632581       27.2592512932       42.4017115239
H                10.9110433128       29.1535250443       44.3073050765
H                 8.4169850559       29.2050133152       44.8213324481
H                 8.7791670530       29.2557883154       43.0883007420
H                 8.2353979738       27.7405011903       43.8253235647
N                 9.7500736665       26.4239005033       45.7707364672
C                 9.6979647174       25.7557995578       47.0542530923
C                11.0893640943       25.5146168314       47.6483500106
O                11.2614297134       25.5606748705       48.8633420616
C                 8.9340743913       24.4295959521       46.9642687476
C                 7.4124165228       24.5887371202       46.9950245629
C                 6.8315244707       25.1500536749       45.6980018652
N                 5.3783184207       25.1492103091       45.7798031295
C                 4.5572638686       25.3068322662       44.7419394382
N                 3.2398789049       25.2544591722       44.9491565924
N                 5.0154859963       25.6172605055       43.5357499817
H                 9.7113498057       25.8371996278       44.9462786769
H                 9.1978353411       26.4330740433       47.7603363898
H                 9.2496051697       23.8931395392       46.0659582616
H                 9.2245692823       23.8019662417       47.8095000628
H                 6.9954930094       23.5964076766       47.1840478847
H                 7.1539170108       25.2376675629       47.8319149709
H                 7.1810253646       26.1751041020       45.5446454676
H                 7.1753253519       24.5358317988       44.8583083891
H                 4.9937206160       24.7895343347       46.6431778342
H                 2.8574608183       25.0326836068       45.8539737424
H                 2.6037196508       25.3595790353       44.1758364804
H                 5.9985755708       25.5774378363       43.2942388545
H                 4.3780808335       25.6587796129       42.7561909717
N                12.0657427090       25.2448347380       46.7836576785
C                13.4367376733       25.0606994644       47.2125989868
C                13.9823573196       26.3601968439       47.8277007495
O                14.5786977267       26.3718955793       48.8950073848
C                14.3068094024       24.6085275422       46.0373756646
C                15.7742828598       24.5609983949       46.4427489619
C                13.8702801105       23.2342143735       45.5408595445
H                11.8820627830       25.2256968780       45.7903265845
H                13.4618009203       24.3008753797       48.0038335387
H                14.1827270579       25.3336990636       45.2247543821
H                16.3623347606       24.3159671884       45.5645689144
H                16.0998483324       25.5206680216       46.8325554396
H                15.9372157189       23.8002926609       47.2033830594
H                14.4710159718       22.9579059104       44.6798049659
H                14.0164057030       22.4786216053       46.3105739012
H                12.8220125005       23.2218593081       45.2474728297
N                13.7464341601       27.4448558742       47.0844471394
C                14.2298357464       28.7620089502       47.4520658638
C                13.9417217905       29.0279797245       48.9321052943
O                14.8032093805       29.4251165286       49.6992934024
C                13.5878834275       29.8442840891       46.5690505756
C                13.9056257538       31.2353968686       47.1136441920
C                14.0884334515       29.7173357586       45.1315613012
H                13.2711098450       27.3457806419       46.1963093601
H                15.3239723639       28.7991894871       47.3440980188
H                12.5048598952       29.6901907917       46.5893314264
H                13.4744059821       31.9903863534       46.4624091091
H                13.4976881133       31.3616218598       48.1132216237
H                14.9823925300       31.3849436740       47.1599199642
H                13.6384092123       30.4898538689       44.5141684811
H                15.1686277607       29.8364562137       45.0967021829
H                13.8351424188       28.7500492962       44.7061423013
N                12.6585121368       28.8581562486       49.2814451543
C                12.2206789742       29.1143278267       50.6365548404
C                12.7401045615       28.0252284128       51.5861588459
O                13.3581148250       28.2879167072       52.6015082027
C                10.6941218441       29.2352191587       50.6929619881
O                10.3442723287       30.3379551221       49.8854928674
C                10.2206009567       29.4056815311       52.1351170328
H                11.9769876446       28.5835461509       48.5882880535
H                12.6695956494       30.0594873319       50.9649897401
H                10.2710120181       28.3108365972       50.2644767600
H                 9.3984216157       30.5078087884       49.9790420092
H                 9.1470362377       29.5685006551       52.1623391023
H                10.4698698159       28.5224493558       52.7169926968
H                10.7201997587       30.2606939846       52.5835887835
N                12.4007874354       26.7851460009       51.2023627685
C                12.8266543621       25.6082556006       51.9241510467
C                11.7817585301       25.2437248245       52.9825133390
O                11.7185219231       25.8115711895       54.0570534808
H                11.9863997930       26.6144516806       50.2946902163
H                12.9792749579       24.7961978851       51.2140161452
H                13.7630499927       25.8401147973       52.4387718529
N                10.9008050450       24.2926998416       52.6129855220
C                 9.9711737403       23.7194277472       53.5736910070
C                10.4796288032       22.3006054415       53.8840718924
O                11.6386589563       22.1465866331       54.2496773635
C                 8.5183243501       23.8922859823       53.1277596117
C                 8.2419197136       25.3682430934       52.8102579465
C                 6.7542877361       25.6195236931       52.5546363934
C                 6.5374747133       27.0070681806       51.9535760060
N                 5.0787532920       27.2724905882       51.7842845281
H                11.0190326486       23.8173789325       51.7318853908
H                10.1391597962       24.3112036216       54.4856214755
H                 8.3072198921       23.2783518455       52.2480570619
H                 7.8673752047       23.5621427361       53.9392033652
H                 8.5926038677       25.9796751832       53.6447239653
H                 8.8231695347       25.6433936884       51.9280249762
H                 6.3925333539       24.8473613220       51.8721481798
H                 6.2165323683       25.5242340392       53.4990923469
H                 6.9715752844       27.7652205383       52.6083927721
H                 7.0272643298       27.0578918555       50.9796517309
H                 4.9194058854       28.1479121863       51.2613960761
H                 4.6473864567       26.4876235657       51.2720205496
H                 4.6220213943       27.3420952131       52.7074952946
N                 9.0846092167       19.2719712280       51.8257155319
C                 8.9350790543       18.7456675662       50.4804517512
C                 9.9291512271       19.4782341832       49.5727634826
O                 9.6027076198       20.3401032295       48.7724161732
C                 7.5026312313       19.0246358659       50.0376029791
C                 7.1448513564       20.5375993490       50.1328002221
O                 7.4621420760       21.1263687414       51.2045644178
O                 6.5246958381       21.0628668245       49.2050799921
H                 8.4308013397       20.0880708499       51.8951136502
H                 9.1475031064       17.6685664672       50.4463039396
H                 7.3594043217       18.6818533996       49.0114641456
H                 6.8170981539       18.4699149971       50.6836655671
N                11.2107883619       19.1263949829       49.8032507459
C                12.3067150501       19.8977322416       49.2360150527
C                13.0758945087       18.9610825360       48.2994726244
O                12.8566379848       18.9595117489       47.0951600154
C                13.1055451409       20.6001082731       50.3387465168
C                13.8987752785       21.7785473119       49.7949363248
S                15.3026653314       21.2726577317       48.7550431415
C                16.5817827952       21.1417277976       50.0487637261
H                11.3836215110       18.5834011242       50.6538324578
H                11.8356751802       20.6435103099       48.5817465311
H                12.3936030162       20.9663385475       51.0848751267
H                13.7611498396       19.9015976806       50.8590494632
H                13.2539318846       22.3851978133       49.1589896448
H                14.2903984006       22.3880176570       50.6091448530
H                17.4790427979       20.8007858855       49.5454951670
H                16.7467310073       22.1176665050       50.4949240209
H                16.2712075363       20.4242134467       50.8023922183
N                13.9337757569       18.1115084494       48.8827969900
C                14.6233771347       17.1235138473       48.0832539995
C                13.6282171139       16.1579962175       47.4426505134
O                13.7207519764       15.8438136028       46.2697997563
C                15.7389252125       16.3930664578       48.8566180869
C                16.8868012399       17.3651994510       49.1292449950
C                15.2594672518       15.7581780231       50.1608665134
H                14.0233586917       18.0723263353       49.8859581856
H                15.0774055920       17.6504515367       47.2341771072
H                16.0952056923       15.5979816790       48.1940958118
H                17.7072994474       16.8391656716       49.6109563967
H                17.2434472742       17.8015452442       48.2002132173
H                16.5476187892       18.1674488106       49.7790048070
H                16.0772299095       15.1949608278       50.6021838383
H                14.9520931176       16.5112219260       50.8829466196
H                14.4338160810       15.0734319837       49.9885866472
N                10.6075448055       16.5672999820       46.5716801999
C                 9.8116559997       17.1208648310       45.4942267422
C                10.5931991226       17.1212669503       44.1947192576
O                10.1313279018       16.6630903632       43.1484309103
C                 9.3946921843       18.5411646299       45.8398170218
C                 8.8202114111       19.2003274443       44.5484401336
O                 7.6354199178       18.9478306214       44.2645896339
O                 9.6205580438       19.8975672039       43.8970254775
H                10.2541459049       16.8331393895       47.4831545312
H                 8.9022950379       16.5159529393       45.3315097365
H                 8.6267482394       18.5248423578       46.6170288111
H                10.2515709038       19.1206659264       46.1917159029
N                11.8250354141       17.6342281238       44.2509980103
C                12.5369145918       17.9371370279       43.0204556175
C                13.2543535100       16.6880554029       42.4894394330
O                13.6603959874       16.6477723974       41.3311436710
C                13.3800361497       19.2060163976       43.2138864502
C                13.5632271407       20.0706484520       41.9544788278
C                13.9678837378       21.4829113021       42.3722215135
C                14.6174017780       19.5232769039       41.0002162375
H                12.1195328188       18.0943038891       45.1007202222
H                11.7634369703       18.1600044382       42.2662790481
H                12.8228137434       19.8070211779       43.9385542767
H                14.3443081966       18.9606705860       43.6577676129
H                12.5935920881       20.1198385120       41.4450508173
H                14.1882723025       22.0842170144       41.4941922581
H                13.1612567949       21.9692325135       42.9146678137
H                14.8523098416       21.4482328148       43.0034282006
H                14.7522881392       20.2183705870       40.1728607040
H                15.5473158915       19.4291161626       41.5506702439
H                14.3078711645       18.5572643490       40.6180995001
H                21.3415007778       22.2436423109       43.6479413754
H                21.5811600753       23.7575234118       47.2145319436
H                20.3665821785       24.3877432898       49.7771570416
H                19.8368067860       28.2085162433       59.8644124905
H                18.4773725381       33.2658328381       60.6854057479
H                20.5997294965       28.9675121443       47.0867921511
H                19.4215996140       27.9199929754       44.2187094910
H                20.9580110807       26.3737905058       41.0069559666
H                15.4778973877       25.4324958095       37.4699511251
H                 9.8659800534       21.5170747147       53.7865279941
H                 8.8702631851       18.6341402376       52.4234005715
H                12.8842549991       15.7719472791       47.9880738250
H                10.5997805412       15.6688219597       46.5199408572
H                13.3940431944       15.8992738358       43.0880298034
