260
Properties=species:S:1:pos:R:3 pbc="F F F"
N      20.23000000      21.98500000      72.52500000 
C      19.54700000      22.83900000      73.39000000 
C      20.11300000      22.66500000      74.85500000 
O      20.65500000      21.59900000      75.13200000 
C      18.04100000      22.65400000      73.40600000 
C      17.68600000      21.19000000      73.69400000 
S      15.97700000      20.76200000      73.17100000 
C      15.06600000      22.06000000      74.19700000 
H      20.57000000      21.16400000      72.92600000 
H      19.71600000      23.84900000      73.15000000 
H      17.54700000      23.25900000      74.05200000 
H      17.69700000      22.87700000      72.36700000 
H      18.29400000      20.51500000      73.14600000 
H      17.76700000      20.93800000      74.77600000 
H      13.95600000      21.76700000      74.11800000 
H      15.37000000      22.02500000      75.12700000 
H      15.17700000      22.99200000      73.71100000 
N      19.96100000      23.71300000      75.62100000 
C      20.50400000      23.88300000      76.93800000 
C      19.52400000      24.44700000      77.79500000 
O      18.83300000      25.41600000      77.40300000 
C      21.71000000      24.85600000      76.78400000 
C      22.30200000      25.30300000      78.08500000 
C      23.44200000      26.22600000      77.86600000 
O      24.12500000      26.55900000      79.06800000 
O      23.74000000      26.65800000      76.83400000 
H      19.62600000      24.56700000      75.19900000 
H      20.89200000      22.88100000      77.28600000 
H      22.47300000      24.39700000      76.19400000 
H      21.32500000      25.74700000      76.26800000 
H      21.57400000      25.77600000      78.71900000 
H      22.65500000      24.41700000      78.72200000 
N      19.39200000      23.93800000      79.09300000 
C      18.58600000      24.64200000      80.04400000 
C      19.39900000      24.47500000      81.30700000 
O      20.02800000      23.55800000      81.59600000 
C      17.17200000      24.00200000      80.31500000 
C      16.13900000      24.79000000      79.48700000 
C      14.86300000      24.18400000      79.65400000 
O      14.40000000      23.78600000      80.86100000 
N      14.02100000      24.00900000      78.58600000 
H      19.90400000      23.20600000      79.29300000 
H      18.50100000      25.66400000      79.74100000 
H      17.24400000      22.93100000      79.96000000 
H      16.96000000      24.04400000      81.25400000 
H      16.10900000      25.76200000      79.81200000 
H      16.39600000      24.77400000      78.38000000 
H      14.33600000      24.27100000      77.70000000 
H      13.12600000      23.63300000      78.68500000 
N      19.21600000      25.57400000      82.13000000 
C      19.75700000      25.61100000      83.44300000 
C      18.91400000      26.35800000      84.30000000 
O      18.45900000      27.48600000      83.96600000 
C      21.26800000      26.19500000      83.33900000 
C      21.94600000      26.40000000      84.68500000 
C      23.40000000      26.06500000      84.57100000 
C      21.79800000      27.80000000      85.10200000 
H      18.72800000      26.40200000      81.81800000 
H      19.88200000      24.56600000      83.79900000 
H      21.77900000      25.45400000      82.70200000 
H      21.18100000      27.07700000      82.77000000 
H      21.53200000      25.70800000      85.38300000 
H      23.92900000      26.23400000      85.43100000 
H      23.58400000      25.03500000      84.21500000 
H      23.85800000      26.68100000      83.74500000 
H      22.28100000      27.98500000      86.05500000 
H      22.15000000      28.48000000      84.39300000 
H      20.70700000      28.06300000      85.30100000 
N      18.60600000      25.82800000      85.46400000 
C      17.61000000      26.37900000      86.37500000 
C      18.25400000      26.51000000      87.72200000 
O      18.81900000      25.41600000      88.17800000 
C      16.37300000      25.52300000      86.43000000 
C      15.61300000      25.28800000      85.17400000 
C      14.59500000      24.26800000      85.22100000 
C      13.85600000      24.06700000      83.97700000 
N      12.92200000      22.94000000      84.02100000 
H      18.93700000      24.93200000      85.71900000 
H      17.34400000      27.37900000      86.03900000 
H      16.70600000      24.53400000      86.81100000 
H      15.70200000      25.87300000      87.20600000 
H      15.15800000      26.29700000      84.87600000 
H      16.34700000      25.13600000      84.37600000 
H      15.13500000      23.31400000      85.40900000 
H      13.97400000      24.40800000      86.05800000 
H      13.18600000      24.99300000      83.80800000 
H      14.46200000      23.97900000      83.07000000 
H      12.41500000      22.81000000      83.17800000 
H      13.49400000      22.05400000      84.17500000 
H      12.29300000      22.99100000      84.79000000 
N      18.20000000      27.60600000      88.41200000 
C      18.81400000      27.81500000      89.66700000 
C      17.81800000      28.48200000      90.58300000 
O      17.32700000      29.57200000      90.34000000 
C      20.05000000      28.65200000      89.54700000 
C      20.62500000      28.92000000      90.91700000 
C      21.05400000      28.05900000      88.64600000 
H      17.77300000      28.47000000      87.89800000 
H      19.09300000      26.86500000      90.00900000 
H      19.69700000      29.65500000      89.11900000 
H      21.53400000      29.51700000      90.84400000 
H      19.95500000      29.44800000      91.56900000 
H      20.88000000      28.02100000      91.36200000 
H      21.91200000      28.70100000      88.48800000 
H      21.37100000      27.11000000      89.03300000 
H      20.60300000      27.85400000      87.62900000 
N      17.50400000      27.72500000      91.69400000 
C      16.60900000      28.26000000      92.69300000 
C      17.33200000      28.28800000      93.91100000 
O      17.99300000      27.35000000      94.39700000 
C      15.41800000      27.25600000      92.80100000 
C      14.57400000      27.19500000      91.56800000 
C      13.50100000      26.09100000      91.60500000 
C      12.67500000      26.14700000      90.42200000 
N      11.66400000      24.97500000      90.45400000 
H      17.94000000      26.86200000      91.85000000 
H      16.22800000      29.15800000      92.37300000 
H      15.84200000      26.24600000      93.01300000 
H      14.82100000      27.51800000      93.66700000 
H      14.11500000      28.16300000      91.42600000 
H      15.22200000      27.05700000      90.70300000 
H      14.04000000      25.16300000      91.67600000 
H      12.95800000      26.22300000      92.48100000 
H      12.07100000      27.08900000      90.36000000 
H      13.26300000      26.06500000      89.46400000 
H      11.06600000      25.07000000      89.62900000 
H      12.18800000      24.13700000      90.40300000 
H      11.12300000      25.05200000      91.25600000 
N      17.19100000      29.45600000      94.68300000 
C      17.88900000      29.61500000      95.92200000 
C      17.02300000      30.43800000      96.86700000 
O      16.32900000      31.38300000      96.44700000 
C      19.19600000      30.41300000      95.71100000 
C      19.85400000      30.75200000      96.98900000 
C      20.66600000      29.91500000      97.65600000 
C      19.53200000      32.04000000      97.59100000 
C      21.21200000      30.27100000      98.89400000 
C      20.06500000      32.32200000      98.77200000 
C      20.87100000      31.44400000      99.47000000 
H      16.74700000      30.24200000      94.26300000 
H      18.06900000      28.64300000      96.38500000 
H      19.86500000      29.66400000      95.11700000 
H      18.96700000      31.25700000      95.10100000 
H      20.93600000      28.97500000      97.23100000 
H      18.90600000      32.65600000      97.06100000 
H      21.84700000      29.56700000      99.42100000 
H      19.79600000      33.26700000      99.23300000 
H      21.25100000      31.71200000     100.44200000 
N      15.84500000      33.48100000      92.01500000 
C      15.52100000      32.47200000      90.94100000 
C      16.16300000      32.90400000      89.70400000 
O      16.14100000      34.04800000      89.36900000 
C      14.05400000      32.36700000      90.78600000 
C      13.47800000      31.38400000      89.83100000 
O      14.06700000      30.26200000      89.78500000 
N      12.50400000      31.72900000      89.01300000 
H      15.69900000      34.42800000      91.74400000 
H      15.90000000      31.51800000      91.27100000 
H      13.57900000      32.15200000      91.78100000 
H      13.63200000      33.39900000      90.53500000 
H      12.17300000      31.09000000      88.44900000 
H      12.11000000      32.64500000      89.11600000 
N      16.66300000      31.91100000      88.88000000 
C      17.17200000      32.31500000      87.57200000 
C      17.09200000      31.14100000      86.74200000 
O      17.38300000      29.97500000      87.15200000 
C      18.63200000      32.76000000      87.68100000 
H      16.76600000      31.02200000      89.23000000 
H      16.54700000      33.10000000      87.20000000 
H      18.95500000      33.06800000      86.72700000 
H      18.64800000      33.62800000      88.32700000 
H      19.20700000      32.04400000      88.06600000 
N      16.75800000      31.28300000      85.40200000 
C      16.76300000      30.20000000      84.57500000 
C      17.32900000      30.68900000      83.22300000 
O      17.20700000      31.85700000      82.83800000 
C      15.43200000      29.57600000      84.35700000 
C      14.80300000      29.11000000      85.61300000 
C      14.40100000      30.56000000      83.66400000 
H      16.57900000      32.19800000      85.12400000 
H      17.41700000      29.42100000      84.89400000 
H      15.50800000      28.72100000      83.67400000 
H      13.85400000      28.59400000      85.46600000 
H      15.47400000      28.41600000      86.16000000 
H      14.61500000      29.93300000      86.26000000 
H      13.44500000      30.04400000      83.46700000 
H      14.25200000      31.34200000      84.30900000 
H      14.80100000      30.93900000      82.71200000 
N      17.87500000      29.67300000      82.47000000 
C      18.43000000      29.98200000      81.15200000 
C      17.99900000      28.88600000      80.21600000 
O      17.90200000      27.68000000      80.56900000 
C      19.93800000      29.92900000      81.24100000 
C      20.50600000      31.18900000      81.84300000 
N      20.79300000      31.29400000      83.21500000 
C      20.80400000      32.30900000      81.20000000 
C      21.15400000      32.43300000      83.33800000 
N      21.21000000      33.16200000      82.18300000 
H      17.98900000      28.83900000      82.85800000 
H      18.10400000      30.93800000      80.80400000 
H      20.23800000      29.05300000      81.78300000 
H      20.32300000      29.78600000      80.19900000 
H      20.71400000      32.60500000      80.16700000 
H      21.47900000      32.96100000      84.33600000 
H      21.45500000      34.14000000      82.06600000 
N      17.81200000      29.30300000      78.93800000 
C      17.56700000      28.32100000      77.88200000 
C      18.39500000      28.81100000      76.73500000 
O      18.34400000      30.04900000      76.42400000 
C      16.12700000      28.20400000      77.39200000 
O      15.61500000      29.45600000      77.14600000 
H      17.78200000      30.22300000      78.75300000 
H      17.92000000      27.41300000      78.22500000 
H      16.03700000      27.51900000      76.73100000 
H      15.54300000      27.88300000      78.38300000 
H      16.05000000      29.90000000      76.36100000 
N      17.00000000      32.52300000      76.43100000 
C      16.21800000      33.17100000      77.48400000 
C      17.08600000      33.16400000      78.73900000 
O      17.72800000      32.24200000      79.01400000 
C      14.91200000      32.48800000      77.81100000 
O      14.10800000      32.56200000      76.60000000 
H      17.41800000      31.69400000      76.70100000 
H      16.02200000      34.22500000      77.16900000 
H      15.10300000      31.48400000      78.08500000 
H      14.42900000      33.01500000      78.55700000 
H      13.47300000      31.88600000      76.58200000 
N      16.91300000      34.27800000      79.53300000 
C      17.67300000      34.39800000      80.75100000 
C      16.69500000      35.17500000      81.67500000 
O      16.42000000      36.35200000      81.34300000 
C      18.91800000      35.14000000      80.53200000 
C      19.65300000      35.54300000      81.73600000 
O      19.01100000      35.39000000      82.89900000 
O      20.85600000      36.03200000      81.62400000 
H      16.39000000      35.05900000      79.18700000 
H      17.78500000      33.47200000      81.16400000 
H      19.59300000      34.48100000      79.94800000 
H      18.73800000      36.02900000      79.91100000 
N      16.14000000      34.57500000      82.65100000 
C      15.25800000      35.19300000      83.56100000 
C      15.88900000      35.13100000      84.97900000 
O      16.52100000      34.10500000      85.33600000 
C      13.97300000      34.36700000      83.67200000 
C      13.22000000      34.46800000      82.29200000 
C      11.92700000      33.76600000      82.34300000 
O      11.62900000      32.92700000      83.25200000 
O      11.12100000      34.04700000      81.37400000 
H      16.50600000      33.55000000      82.87900000 
H      15.10400000      36.13100000      83.27500000 
H      14.12700000      33.41100000      83.95300000 
H      13.32700000      34.85700000      84.39400000 
H      13.09000000      35.43800000      81.99700000 
H      13.84600000      33.98100000      81.59000000 
H      19.68188346      21.73239552      71.85734797 
H      17.00493514      30.22318104      97.84348680 
H      15.32659219      33.33023713      92.73508604 
H      18.97421032      28.17277994      76.22786041 
H      16.46470985      32.33335439      75.73278872 
H      15.79157808      35.90558131      85.60392621 
