448
Properties=species:S:1:pos:R:3 pbc="F F F"
N      37.62600000      23.88400000      22.77500000 
C      38.25500000      24.11700000      21.86000000 
C      38.56000000      25.83300000      22.07200000 
O      38.60000000      26.36700000      21.43500000 
H      37.93000000      22.46500000      23.39700000 
H      39.15500000      23.68300000      21.75500000 
H      37.68400000      24.24800000      21.08500000 
N      39.01500000      25.95700000      23.68900000 
C      39.52900000      27.23800000      23.84500000 
C      40.87900000      27.25400000      23.72800000 
O      41.54900000      26.69900000      23.32900000 
C      39.02100000      27.33500000      25.55800000 
H      38.98500000      25.24800000      24.14500000 
H      38.84100000      28.04700000      23.30400000 
H      39.11000000      28.45700000      25.72300000 
H      38.09300000      27.08700000      25.58300000 
H      39.62700000      26.89400000      25.97100000 
N      41.27400000      28.63200000      24.19800000 
C      42.95600000      28.89700000      24.45500000 
C      43.00000000      29.61100000      25.62600000 
O      42.55900000      30.84700000      25.62800000 
C      43.59800000      29.32000000      23.19800000 
C      45.09700000      28.91400000      23.27200000 
C      45.55900000      27.59100000      22.86200000 
C      46.03000000      29.61900000      22.16400000 
H      40.86700000      29.32100000      24.45900000 
H      43.22000000      27.73900000      24.65000000 
H      43.09000000      28.98900000      22.24100000 
H      43.46000000      30.54900000      23.18100000 
H      45.51600000      29.19800000      24.06500000 
H      46.09900000      27.25500000      22.76200000 
H      44.86500000      26.85300000      23.69600000 
H      44.66200000      27.13800000      21.89900000 
H      46.75000000      29.56400000      22.05600000 
H      45.36100000      29.61300000      20.97600000 
H      45.70100000      30.94400000      22.28600000 
N      41.58300000      29.13800000      13.81300000 
C      41.67700000      27.76000000      13.79200000 
C      40.90000000      26.91500000      12.97200000 
O      39.86700000      27.53500000      11.94700000 
C      40.95200000      27.20300000      15.13500000 
C      41.36400000      27.95900000      16.46700000 
C      40.74000000      27.53500000      17.81100000 
N      41.57100000      26.18600000      18.09000000 
C      41.98000000      26.05600000      19.71900000 
N      42.29200000      24.68300000      19.49600000 
N      41.94000000      27.02600000      20.75900000 
H      40.13100000      29.35500000      14.08900000 
H      42.55700000      27.59800000      13.77800000 
H      40.11200000      26.91400000      15.21300000 
H      41.61400000      25.94100000      15.34500000 
H      42.52900000      28.07700000      16.51800000 
H      41.01800000      28.87400000      16.30500000 
H      40.92800000      28.16400000      18.42600000 
H      39.84600000      27.16500000      17.60800000 
H      41.71500000      25.46700000      17.56100000 
H      42.41500000      24.14900000      19.23600000 
H      42.78600000      24.58900000      20.92300000 
H      41.64000000      27.80500000      20.21500000 
H      42.01200000      26.75400000      21.10700000 
N      41.09500000      25.70800000      12.45500000 
C      40.68200000      24.77200000      11.66100000 
C      39.12100000      24.08200000      12.59000000 
O      39.12100000      24.22700000      13.50200000 
C      41.41600000      23.59300000      11.27600000 
H      41.94600000      25.22500000      13.18000000 
H      40.15100000      25.30300000      10.78600000 
H      40.98700000      22.90100000      10.69800000 
H      42.20100000      23.99500000      10.84100000 
H      41.79300000      23.10100000      12.21500000 
N      38.26600000      23.68500000      11.60200000 
C      37.29400000      23.08400000      12.34100000 
C      37.55400000      21.72100000      12.85400000 
O      38.40400000      21.20900000      12.89700000 
C      36.18300000      22.87800000      10.95800000 
C      37.08200000      22.46600000      10.01900000 
C      38.05000000      23.59000000      10.38000000 
H      36.61800000      23.69400000      12.96300000 
H      35.53800000      21.64200000      11.34600000 
H      35.50200000      23.41100000      10.97300000 
H      37.62900000      21.49200000       9.90300000 
H      36.57600000      22.65200000       8.95700000 
H      39.24600000      23.31900000       9.64800000 
H      37.80300000      24.61800000       9.77400000 
N      36.83300000      21.16700000      14.42000000 
C      36.86500000      20.50100000      14.93600000 
C      35.81200000      19.55900000      15.25200000 
O      34.62700000      19.84800000      14.96500000 
C      37.40200000      20.92200000      16.34800000 
C      38.59200000      21.68900000      16.45400000 
S      38.88300000      22.74000000      18.07700000 
C      39.52700000      21.10000000      19.05100000 
H      35.79300000      22.15500000      14.29800000 
H      37.78300000      19.88400000      14.71000000 
H      36.37000000      21.64100000      16.81800000 
H      37.40100000      20.11400000      17.18000000 
H      39.41000000      21.20700000      16.23500000 
H      38.47400000      22.68600000      15.72900000 
H      39.90900000      21.74100000      20.18300000 
H      38.97400000      20.58200000      19.31400000 
H      40.46400000      20.85600000      18.66500000 
N      35.89500000      18.26400000      15.52700000 
C      34.81700000      17.17700000      15.96400000 
C      35.21200000      17.12200000      17.61100000 
O      35.61200000      17.09800000      18.05500000 
C      35.78300000      15.97500000      15.08300000 
O      37.15000000      15.68300000      15.68100000 
C      35.22200000      15.41400000      13.89900000 
H      37.11900000      17.92700000      15.71900000 
H      34.21900000      17.46500000      15.40200000 
H      34.99800000      14.93200000      15.93000000 
H      37.30900000      15.07300000      15.86300000 
H      35.68800000      14.98700000      13.54600000 
H      34.31500000      15.76300000      13.62200000 
H      35.83700000      16.66600000      13.27900000 
N      33.57200000      16.92300000      18.08300000 
C      33.20200000      16.83400000      19.22200000 
C      32.17800000      15.67700000      19.09300000 
O      31.55700000      15.29000000      18.30700000 
C      32.23900000      18.13100000      19.71800000 
C      33.15800000      19.31100000      19.59900000 
C      34.79900000      19.43500000      19.89600000 
C      32.46500000      20.48500000      19.03900000 
C      35.50800000      20.63300000      19.66900000 
C      33.79000000      21.70800000      18.97800000 
C      34.42300000      21.76900000      19.18900000 
O      35.63100000      22.80600000      19.03400000 
H      32.62800000      16.97100000      16.92500000 
H      33.99000000      16.55300000      19.71600000 
H      31.64800000      18.22700000      19.32800000 
H      32.30300000      17.92600000      20.73200000 
H      35.13100000      18.47700000      20.26900000 
H      31.66300000      20.50500000      18.89100000 
H      36.37000000      20.54000000      19.91700000 
H      32.90500000      22.59800000      18.59400000 
H      36.24300000      22.85700000      19.07100000 
N      30.40700000      18.74200000      12.23600000 
C      32.11900000      19.88400000      12.25700000 
C      31.93900000      21.18200000      12.87600000 
O      30.51900000      21.72700000      12.25600000 
C      32.28100000      20.10500000      10.66000000 
C      33.25900000      18.52300000      10.21600000 
C      32.54600000      17.43700000       9.75400000 
O      30.99200000      17.74500000       9.18600000 
N      32.97100000      16.60200000       9.91500000 
H      30.32400000      19.17300000      11.95300000 
H      32.77700000      19.38900000      12.69200000 
H      31.70500000      20.12900000      10.11900000 
H      33.18900000      20.77700000      10.61800000 
H      33.78100000      19.00400000       9.12800000 
H      33.90700000      18.38800000      10.78200000 
H      33.74200000      16.18500000      10.19700000 
H      32.24600000      15.38900000       9.46600000 
N      31.95800000      21.65100000      13.35000000 
C      32.11300000      22.83600000      14.43100000 
C      33.12300000      24.01300000      14.44400000 
O      34.31900000      23.41700000      14.38700000 
C      31.57200000      22.41400000      15.83400000 
C      30.94800000      23.58200000      16.81600000 
C      30.54200000      21.53600000      15.49000000 
H      33.38000000      21.01200000      14.06300000 
H      31.14500000      23.27500000      13.96900000 
H      32.54800000      21.97600000      16.34200000 
H      30.85400000      23.31100000      17.63200000 
H      32.05400000      24.39500000      16.88400000 
H      30.43100000      24.11600000      16.25400000 
H      30.14600000      21.06500000      17.12700000 
H      29.78400000      21.62100000      15.41200000 
H      30.87600000      20.42100000      15.40700000 
N      35.90700000      15.96100000      23.88700000 
C      36.57100000      16.31900000      22.87000000 
C      37.51700000      15.31000000      22.18300000 
O      37.92100000      14.69200000      22.79700000 
C      37.18700000      17.90300000      23.47200000 
C      38.54000000      17.57100000      24.30600000 
C      37.98500000      18.46700000      22.17600000 
H      36.33700000      15.64500000      24.69900000 
H      35.78200000      16.93000000      21.96000000 
H      36.79500000      18.23100000      23.74000000 
H      38.92900000      18.12900000      24.58700000 
H      38.09000000      16.72600000      25.18500000 
H      39.34700000      16.70000000      23.77200000 
H      38.34500000      19.52900000      22.55100000 
H      38.78500000      18.05000000      21.57400000 
H      37.13600000      18.83400000      21.37900000 
N      37.56200000      15.47300000      20.78000000 
C      38.37800000      14.66100000      20.09900000 
C      39.76300000      15.07500000      20.30000000 
O      40.25100000      16.16200000      20.34600000 
C      38.02700000      14.39400000      18.79400000 
C      38.64800000      13.39800000      17.53600000 
O      39.20700000      12.85200000      18.16600000 
O      38.29500000      13.57400000      16.76100000 
H      37.09700000      16.10500000      20.29200000 
H      38.31500000      13.56500000      20.44600000 
H      37.13500000      14.71100000      18.50900000 
H      38.52900000      15.79700000      18.11700000 
N      40.65700000      14.04800000      20.73100000 
C      42.35200000      14.46600000      21.32900000 
C      42.76500000      15.10600000      20.35500000 
O      42.92800000      14.47500000      18.61400000 
C      42.87300000      13.12100000      21.90100000 
H      40.52600000      13.11300000      20.72000000 
H      42.01000000      15.11300000      21.95600000 
H      43.69000000      13.37100000      21.99600000 
H      42.25200000      12.79500000      22.52300000 
H      42.85900000      12.34300000      20.90200000 
N      43.76200000      16.23300000      20.57800000 
C      44.53400000      16.85400000      19.42000000 
C      45.73500000      16.34300000      19.25400000 
O      46.65100000      16.44200000      20.40100000 
C      44.26300000      18.30900000      19.67700000 
C      45.22000000      19.25700000      18.97400000 
C      42.86400000      19.06600000      19.82700000 
H      43.63300000      16.33500000      21.16800000 
H      43.94600000      16.78000000      18.48100000 
H      44.77100000      18.49700000      20.91600000 
H      45.14600000      20.20800000      19.07100000 
H      46.42900000      18.95700000      19.06100000 
H      45.02900000      19.01800000      17.84500000 
H      42.92400000      19.83500000      20.03200000 
H      42.57100000      18.82100000      18.74500000 
H      42.30700000      18.38300000      20.38300000 
N      46.21800000      15.97800000      18.25500000 
C      47.77500000      15.41800000      17.87400000 
C      48.18400000      16.55300000      17.46900000 
O      50.07900000      16.08300000      17.93900000 
C      47.57800000      14.36100000      16.67400000 
C      47.25900000      12.75400000      17.27400000 
C      46.18000000      12.39400000      17.65300000 
C      45.70100000      12.52100000      19.47000000 
N      46.85100000      12.03600000      20.08700000 
H      45.60700000      15.86600000      17.44500000 
H      47.91200000      14.83400000      18.90500000 
H      46.79300000      14.58900000      16.14300000 
H      48.44600000      14.42500000      16.23600000 
H      47.60900000      12.26000000      16.17400000 
H      48.31000000      12.56200000      17.84500000 
H      45.30100000      12.83800000      17.23300000 
H      46.00200000      11.26800000      17.51900000 
H      45.92000000      13.55700000      19.50800000 
H      45.05700000      12.22300000      19.45000000 
H      46.65100000      11.89200000      21.02700000 
H      46.85300000      10.62300000      19.87100000 
H      47.76600000      12.09200000      19.96300000 
N      48.55700000      17.03900000      17.24200000 
C      49.15100000      18.37900000      16.12600000 
C      48.30300000      19.80700000      16.35500000 
O      47.68600000      19.89800000      16.54400000 
C      49.66100000      17.75400000      15.04300000 
C      50.75500000      16.80200000      14.73500000 
O      51.78900000      17.25800000      15.41200000 
N      50.82000000      16.10400000      14.32900000 
H      47.19100000      17.74600000      16.74000000 
H      50.22900000      18.33400000      16.97100000 
H      48.67900000      17.42000000      14.46000000 
H      49.87100000      18.89900000      14.15400000 
H      51.42700000      15.24800000      14.02800000 
H      49.73100000      15.57900000      13.58500000 
N      44.93700000      21.84000000      14.77300000 
C      43.60900000      22.32100000      15.39700000 
C      43.53700000      23.50300000      16.33900000 
O      42.83000000      23.85900000      16.85600000 
C      42.97800000      20.91500000      16.27100000 
C      42.33500000      19.97300000      15.16500000 
O      41.92500000      20.34100000      14.29100000 
O      42.60800000      18.75200000      15.82300000 
H      45.39600000      21.34600000      15.33100000 
H      42.90300000      22.50300000      14.66300000 
H      43.71600000      20.68500000      16.86300000 
H      42.12700000      21.45500000      16.80400000 
N      44.57800000      24.00900000      16.46900000 
C      45.01000000      25.30200000      17.22100000 
C      45.34700000      26.51100000      16.29100000 
O      44.83000000      27.60100000      16.71100000 
C      46.31600000      25.15800000      17.99700000 
C      46.47100000      26.29600000      19.26800000 
C      45.98500000      23.77900000      19.04300000 
H      45.72300000      23.66400000      15.89000000 
H      44.26900000      25.42500000      17.77400000 
H      47.10500000      25.07900000      17.67300000 
H      47.12100000      26.11900000      19.84800000 
H      46.41300000      27.16900000      18.69100000 
H      45.37800000      26.26200000      19.83600000 
H      47.02400000      23.66600000      19.69500000 
H      45.28700000      23.69400000      19.44700000 
H      46.19100000      22.86300000      18.26600000 
N      46.58700000      26.43700000      26.95700000 
C      45.51800000      25.11400000      27.81600000 
C      44.18900000      25.09200000      26.70400000 
O      43.80900000      26.20500000      26.42300000 
C      45.22200000      25.26600000      28.97200000 
C      44.09700000      24.58500000      29.71500000 
C      46.78700000      25.59500000      29.68000000 
H      46.14700000      26.84600000      27.07900000 
H      46.01100000      24.07200000      27.49600000 
H      44.78900000      26.51500000      29.13500000 
H      44.22800000      24.70200000      30.81700000 
H      43.45700000      24.51200000      29.40700000 
H      44.70300000      23.32700000      29.72500000 
H      46.36900000      25.68800000      31.03400000 
H      47.11000000      24.69300000      29.78400000 
H      47.14600000      26.29100000      29.57400000 
N      43.38600000      23.86600000      26.62600000 
C      42.04500000      23.84000000      26.36500000 
C      41.29200000      23.46900000      26.74900000 
O      41.64300000      22.06700000      27.87600000 
C      42.31100000      23.46200000      24.65200000 
C      42.36100000      21.86100000      24.44600000 
C      43.52500000      20.99400000      24.78700000 
C      41.22500000      21.12000000      23.70200000 
C      43.62500000      19.92900000      24.48300000 
C      41.82100000      19.60200000      23.60200000 
C      42.50900000      19.40800000      23.84100000 
O      42.74600000      17.86500000      23.46900000 
H      43.93900000      23.06300000      27.12600000 
H      41.91000000      24.95800000      26.02200000 
H      41.09300000      23.69800000      24.24100000 
H      42.82200000      23.85600000      24.12600000 
H      44.27700000      21.76900000      25.34200000 
H      40.41800000      21.63800000      23.45900000 
H      44.58200000      19.35800000      24.87100000 
H      40.71300000      19.27200000      22.89300000 
H      43.75900000      17.38400000      23.87900000 
N      39.83400000      23.56300000      27.29800000 
C      38.99900000      23.28100000      27.62800000 
C      38.67100000      21.76100000      27.24900000 
O      38.46800000      21.59300000      26.19300000 
C      37.76000000      23.86000000      28.21800000 
C      38.13600000      25.38100000      29.01900000 
C      36.66700000      23.54200000      29.12300000 
C      37.36500000      26.14400000      29.30800000 
H      39.72100000      24.42800000      26.49200000 
H      39.51300000      22.82300000      29.09600000 
H      37.35000000      24.24300000      27.30300000 
H      38.96100000      25.08300000      29.63300000 
H      38.97900000      25.90000000      27.99600000 
H      35.93100000      23.92600000      29.21900000 
H      36.42400000      22.35100000      28.71200000 
H      37.18200000      23.12300000      30.13200000 
H      37.67700000      27.25900000      29.59100000 
H      36.43500000      26.47400000      28.58100000 
H      36.74800000      25.93600000      30.20200000 
N      38.42700000      20.43600000      28.53300000 
C      38.25300000      19.40100000      27.97000000 
C      36.83200000      18.89400000      27.81200000 
O      36.03600000      19.58000000      27.23700000 
C      39.55200000      18.63400000      28.83000000 
O      39.53200000      17.13600000      28.08700000 
H      38.50700000      20.84400000      29.01500000 
H      38.66400000      19.22600000      26.70600000 
H      40.22500000      18.96200000      28.57000000 
H      39.06800000      18.46900000      29.57100000 
H      40.35400000      16.89200000      28.20900000 
N      40.64400000      20.69900000      32.72300000 
C      41.20200000      21.10000000      31.21400000 
C      42.34400000      20.18500000      30.90600000 
O      42.78300000      19.47300000      31.82100000 
C      41.66000000      22.78400000      31.38400000 
O      42.78900000      22.63900000      32.25200000 
C      40.59900000      23.54400000      31.80100000 
H      40.79200000      20.63300000      33.05300000 
H      40.47000000      21.11200000      30.30300000 
H      42.01800000      22.86600000      30.42500000 
H      43.06800000      23.35500000      32.46300000 
H      40.98800000      24.56700000      31.72300000 
H      39.70000000      23.48900000      31.19600000 
H      40.36200000      23.39200000      32.81000000 
N      42.67500000      20.45300000      29.74400000 
C      44.12900000      19.63100000      29.12400000 
C      44.85900000      20.51300000      28.66600000 
O      44.56300000      21.32300000      27.77500000 
C      43.43500000      18.44100000      28.19300000 
O      42.54600000      17.56300000      28.79100000 
H      42.48000000      20.86300000      29.12700000 
H      44.41400000      18.98700000      30.11600000 
H      42.96200000      18.99300000      27.43600000 
H      44.35500000      17.95500000      27.81800000 
H      42.98600000      16.92100000      29.45400000 
N      46.33000000      20.29800000      29.09700000 
C      47.16300000      21.43700000      28.33700000 
C      47.59200000      20.85800000      27.04500000 
O      47.55400000      19.59200000      26.72400000 
C      48.40100000      21.55700000      29.36400000 
C      48.35100000      22.13700000      30.71400000 
C      47.16700000      21.90200000      31.20300000 
C      49.25500000      22.83800000      31.04000000 
C      46.84200000      22.88500000      33.02800000 
C      49.41200000      23.69800000      32.50600000 
C      48.10400000      23.35300000      33.07900000 
H      46.53800000      19.65800000      29.56600000 
H      46.77900000      22.25200000      28.44300000 
H      48.89200000      20.40300000      29.50500000 
H      49.19500000      21.91800000      28.83900000 
H      46.33000000      21.46900000      31.16800000 
H      50.23600000      23.04700000      30.58300000 
H      46.26800000      22.60700000      33.19500000 
H      49.97700000      24.11300000      32.68900000 
H      48.00700000      24.02800000      34.17900000 
N      48.00300000      22.23000000      26.32100000 
C      48.32300000      21.36100000      24.83700000 
C      49.78700000      21.88600000      24.67100000 
O      50.21800000      22.87200000      24.70900000 
C      47.49500000      22.66900000      23.68400000 
C      47.34600000      21.98600000      22.44100000 
C      48.77700000      22.19600000      21.63200000 
C      46.66000000      20.79700000      22.37200000 
H      47.99100000      22.68000000      26.45100000 
H      48.06900000      20.63800000      24.61800000 
H      46.39500000      22.47900000      24.32700000 
H      47.77500000      23.44000000      23.98200000 
H      46.70200000      22.83400000      21.97300000 
H      48.47300000      22.00200000      20.54800000 
H      49.18700000      23.11300000      21.76800000 
H      49.35800000      21.34800000      21.95900000 
H      46.54600000      20.50400000      21.04000000 
H      47.32100000      19.92800000      22.57800000 
H      45.74600000      20.65200000      22.69600000 
N      50.21000000      16.47800000      25.60200000 
C      49.04600000      15.69300000      25.85200000 
C      49.28100000      15.02500000      27.13300000 
O      48.28000000      13.96200000      27.46700000 
C      48.97900000      14.54800000      24.90600000 
C      48.03200000      14.98400000      23.68000000 
O      46.94800000      14.33800000      23.21300000 
N      48.25000000      16.45400000      22.54700000 
H      50.12500000      17.52700000      25.54100000 
H      48.41700000      16.25600000      25.90600000 
H      49.76900000      14.25400000      24.34300000 
H      48.34500000      13.78100000      25.17500000 
H      47.96600000      16.37700000      22.35300000 
H      49.17200000      16.68300000      23.17300000 
H      37.78434372      24.49881135      23.41291400 
H      43.36311298      29.18799745      26.45619143 
H      42.11526952      29.46559893      14.46058637 
H      31.98116645      15.09334659      19.88078502 
H      30.58725676      17.93697847      11.87621140 
H      32.79185609      24.95555050      14.48807122 
H      35.41010753      16.65190088      24.17983756 
H      48.75185904      20.68619564      16.19518576 
H      44.76362857      21.35053405      14.03790448 
H      45.90947878      26.37313667      15.47576302 
H      47.37585439      26.50962230      27.38412382 
H      36.57493254      18.00233267      28.18462003 
H      40.08754805      21.34183509      33.01816821 
H      50.53145779      21.24291094      24.49150330 
H      50.81056627      16.34229574      26.25843317 
H      50.05919272      15.29266557      27.70112958 
