315
Properties=species:S:1:pos:R:3 pbc="F F F"
N      22.96000000      15.40500000      53.64100000 
C      22.25700000      16.22200000      54.53800000 
C      23.04200000      16.22700000      55.82500000 
O      23.42800000      15.14600000      56.26800000 
C      20.84100000      15.78600000      54.78800000 
C      19.94700000      16.83800000      55.47300000 
C      18.88300000      16.15300000      56.26700000 
C      17.85600000      17.17200000      56.66600000 
N      16.94300000      16.64800000      57.77600000 
H      23.31900000      14.55900000      54.07000000 
H      22.27100000      17.28900000      54.12800000 
H      20.43800000      15.51900000      53.79300000 
H      20.87400000      14.88600000      55.33900000 
H      20.50700000      17.45000000      56.01500000 
H      19.50200000      17.44400000      54.66000000 
H      18.38100000      15.39700000      55.71300000 
H      19.32600000      15.74500000      57.14800000 
H      18.33000000      18.10200000      57.08100000 
H      17.20800000      17.48700000      55.86800000 
H      16.25500000      17.32800000      58.01400000 
H      16.52600000      15.79200000      57.46000000 
H      17.52500000      16.45000000      58.58800000 
N      23.24300000      17.38100000      56.48400000 
C      24.06400000      17.43600000      57.66000000 
C      23.44800000      18.51300000      58.54600000 
O      23.26100000      19.62700000      58.03800000 
C      25.48500000      17.56300000      57.38800000 
C      26.25700000      17.79300000      58.75600000 
C      25.87900000      18.54600000      56.31800000 
C      27.76800000      17.63800000      58.51200000 
H      22.94000000      18.24500000      56.03700000 
H      23.86000000      16.44800000      58.20200000 
H      25.81400000      16.60000000      57.01500000 
H      26.02400000      18.78000000      59.03800000 
H      25.91800000      17.11800000      59.43200000 
H      26.84500000      18.52500000      56.05800000 
H      25.21600000      18.50300000      55.50300000 
H      25.68200000      19.61100000      56.78100000 
H      28.27900000      17.83300000      59.51100000 
H      28.02300000      16.67800000      58.24400000 
H      28.14600000      18.32900000      57.85200000 
N      23.09900000      18.15300000      59.78100000 
C      22.38700000      19.12100000      60.58700000 
C      22.96700000      18.92900000      62.02800000 
O      23.57300000      18.04300000      62.34200000 
C      20.90200000      18.80700000      60.58200000 
O      20.64800000      17.71600000      61.47200000 
C      20.34800000      18.50900000      59.22700000 
H      23.28800000      17.27300000      60.10200000 
H      22.56300000      20.06500000      60.26000000 
H      20.41000000      19.70500000      61.00200000 
H      19.75700000      17.49600000      61.53400000 
H      19.31600000      18.51100000      59.21300000 
H      20.75500000      19.22000000      58.46800000 
H      20.71400000      17.47500000      58.93200000 
N      22.59600000      19.98300000      62.84000000 
C      23.02400000      19.92600000      64.18100000 
C      21.99600000      20.81200000      64.93000000 
O      21.84900000      21.94000000      64.74200000 
C      24.40700000      20.62300000      64.32100000 
H      22.15200000      20.76200000      62.43400000 
H      23.06900000      18.97800000      64.53400000 
H      24.73400000      20.61800000      65.39200000 
H      25.11400000      20.05300000      63.73800000 
H      24.36400000      21.63800000      63.96700000 
N      21.31800000      20.14000000      65.90500000 
C      20.39100000      20.69100000      66.74800000 
C      20.71800000      20.36300000      68.19300000 
O      20.94800000      19.25100000      68.45900000 
C      18.95900000      20.32600000      66.46300000 
C      18.01000000      20.76200000      67.54700000 
N      17.71800000      22.10600000      67.76200000 
C      17.45600000      19.91400000      68.53600000 
C      17.00400000      22.10100000      68.86400000 
N      16.79400000      20.95000000      69.35100000 
H      21.49600000      19.16600000      66.06700000 
H      20.48500000      21.89700000      66.62200000 
H      18.66400000      20.75000000      65.49800000 
H      18.95300000      19.24400000      66.37600000 
H      17.47900000      18.94400000      68.68600000 
H      16.59000000      22.99200000      69.32700000 
H      16.32200000      20.62900000      70.18300000 
N      20.21700000      25.87800000      69.50700000 
C      20.93500000      26.31400000      68.26300000 
C      20.65800000      25.09100000      67.25500000 
O      20.95900000      23.94400000      67.64100000 
C      22.43600000      26.43500000      68.53400000 
C      22.64300000      27.25300000      69.86000000 
C      24.06000000      27.69800000      70.03400000 
C      24.45200000      28.88800000      69.18900000 
N      25.81100000      29.28200000      69.48400000 
H      20.29800000      24.94600000      69.81600000 
H      20.49000000      27.13800000      67.86900000 
H      22.90000000      25.47900000      68.64100000 
H      22.85500000      26.95000000      67.67300000 
H      22.00000000      28.14900000      69.78200000 
H      22.30300000      26.66200000      70.62400000 
H      24.19300000      27.92700000      71.07900000 
H      24.74200000      26.83400000      69.84000000 
H      24.40200000      28.63400000      68.12000000 
H      23.83200000      29.69600000      69.41600000 
H      26.14900000      30.04000000      68.91500000 
H      25.96900000      29.53600000      70.47500000 
H      26.51200000      28.47600000      69.34600000 
N      20.11700000      25.41300000      66.19000000 
C      19.64400000      24.41200000      65.22300000 
C      20.09600000      24.92600000      63.84600000 
O      19.77200000      25.98800000      63.42500000 
C      18.09800000      24.47600000      65.27400000 
C      17.52300000      23.56000000      64.21000000 
C      16.06400000      23.77500000      64.05300000 
O      15.48700000      23.64400000      62.86300000 
N      15.34500000      24.10000000      65.01600000 
H      19.82600000      26.39500000      66.01500000 
H      20.03400000      23.47600000      65.46800000 
H      17.81700000      24.11000000      66.25500000 
H      17.78600000      25.46800000      65.10700000 
H      17.95900000      23.73800000      63.18700000 
H      17.63600000      22.53700000      64.42900000 
H      15.73400000      24.20400000      65.98400000 
H      14.28600000      24.25900000      64.98800000 
N      20.92400000      23.93700000      63.20900000 
C      21.51400000      24.37500000      61.98500000 
C      21.22900000      23.15800000      61.04600000 
O      21.34400000      22.02900000      61.43000000 
C      22.99900000      24.44300000      62.10800000 
C      23.36500000      25.57900000      63.12100000 
C      23.72400000      24.67000000      60.77000000 
C      24.78600000      25.49900000      63.64000000 
H      21.15300000      23.23500000      63.63400000 
H      21.10000000      25.23700000      61.52600000 
H      23.34800000      23.50500000      62.55100000 
H      23.19200000      26.48800000      62.65200000 
H      22.67200000      25.49500000      63.94500000 
H      24.77800000      24.80900000      60.93600000 
H      23.58400000      23.86200000      60.14200000 
H      23.33700000      25.54800000      60.30900000 
H      24.93400000      26.20600000      64.39200000 
H      24.96500000      24.52400000      64.04800000 
H      25.48600000      25.66600000      62.85500000 
N      20.94800000      23.41800000      59.72900000 
C      20.94800000      22.35400000      58.79600000 
C      21.47900000      22.80200000      57.45900000 
O      21.43900000      23.93400000      57.14600000 
C      19.52400000      21.79500000      58.54500000 
C      18.62600000      22.78400000      57.99300000 
C      17.21300000      22.22700000      57.86000000 
O      16.77000000      21.90400000      56.79100000 
N      16.57800000      22.09200000      59.03700000 
H      20.84400000      24.38800000      59.41400000 
H      21.55200000      21.56200000      59.19200000 
H      19.60700000      20.96400000      57.92700000 
H      19.17800000      21.40200000      59.51500000 
H      18.54800000      23.65800000      58.66000000 
H      18.90800000      23.13800000      57.06100000 
H      16.89400000      22.36100000      59.84100000 
H      15.64700000      21.67400000      59.01200000 
N      21.99900000      21.79700000      56.74700000 
C      22.57400000      22.00100000      55.47200000 
C      22.16400000      20.76600000      54.58700000 
O      22.27400000      19.71500000      54.98900000 
C      24.07100000      21.96600000      55.55100000 
C      24.60900000      23.08000000      56.48000000 
C      24.77700000      22.00900000      54.20900000 
C      26.02300000      22.99600000      56.86900000 
H      22.17200000      20.90400000      57.21900000 
H      22.27500000      22.88100000      55.03100000 
H      24.37200000      21.03000000      56.07200000 
H      24.38400000      24.04700000      55.90000000 
H      23.95600000      23.13600000      57.34900000 
H      25.85300000      21.99500000      54.29800000 
H      24.50300000      21.15200000      53.61100000 
H      24.49100000      22.88500000      53.69700000 
H      26.26100000      23.80600000      57.58900000 
H      26.20500000      22.09300000      57.35400000 
H      26.67600000      23.10300000      56.06700000 
N      21.66900000      21.12400000      53.44700000 
C      21.17600000      20.11900000      52.44500000 
C      22.03700000      20.40400000      51.21400000 
O      22.03200000      21.58400000      50.69900000 
C      19.72300000      20.18400000      52.18800000 
C      19.35300000      18.94500000      51.38000000 
C      19.00400000      20.26600000      53.45100000 
H      21.46500000      22.11200000      53.16200000 
H      21.51500000      19.16800000      52.84500000 
H      19.54900000      21.04500000      51.56000000 
H      18.30700000      18.89800000      51.20800000 
H      19.85700000      18.90300000      50.39700000 
H      19.63200000      18.04900000      51.92700000 
H      17.88400000      20.19700000      53.22900000 
H      19.21900000      19.48100000      54.11200000 
H      19.13900000      21.18900000      53.94100000 
N      20.62500000      26.00300000      53.55500000 
C      21.26400000      25.94200000      54.93500000 
C      20.52600000      26.94600000      55.78500000 
O      20.12600000      28.08000000      55.23400000 
C      22.73400000      26.37200000      54.71200000 
C      23.46300000      26.54400000      56.08200000 
C      23.56200000      28.04000000      56.44800000 
C      24.92800000      28.61300000      56.06400000 
N      25.21100000      28.40500000      54.62400000 
H      20.31800000      26.89000000      53.17200000 
H      21.15600000      25.00400000      55.30300000 
H      23.17900000      25.54600000      54.18500000 
H      22.78700000      27.26800000      54.11200000 
H      22.88600000      26.02700000      56.85500000 
H      24.42400000      26.11900000      56.02700000 
H      22.81400000      28.62600000      56.00400000 
H      23.51100000      28.16400000      57.49900000 
H      25.01200000      29.62600000      56.22200000 
H      25.73900000      28.09500000      56.58000000 
H      26.11300000      28.74000000      54.33800000 
H      25.24800000      27.36400000      54.35700000 
H      24.50700000      28.79100000      54.02400000 
N      20.30200000      26.65500000      56.88600000 
C      19.56800000      27.59600000      57.84300000 
C      20.07400000      27.40000000      59.24400000 
O      20.56000000      26.33300000      59.58400000 
C      18.02600000      27.40800000      57.79600000 
C      17.52400000      26.17600000      58.48700000 
C      16.99200000      26.53500000      59.83500000 
C      16.53500000      25.42400000      57.67800000 
H      20.57800000      25.76400000      57.35000000 
H      19.82000000      28.55400000      57.52600000 
H      17.60200000      28.27400000      58.09300000 
H      17.83500000      27.30500000      56.65800000 
H      18.36100000      25.51900000      58.67900000 
H      16.58800000      25.68700000      60.36500000 
H      17.64500000      27.07200000      60.45800000 
H      16.09900000      27.22700000      59.69300000 
H      16.09000000      24.62800000      58.19800000 
H      15.68700000      26.13100000      57.38400000 
H      16.95800000      25.03000000      56.74600000 
N      19.79700000      28.36700000      60.06300000 
C      19.95700000      28.18800000      61.47000000 
C      19.14000000      29.00600000      62.28300000 
O      18.69100000      30.17900000      61.82900000 
C      21.48800000      28.45900000      61.84000000 
C      22.04200000      29.82800000      61.51700000 
C      23.49900000      29.87500000      61.75800000 
O      23.91100000      30.94800000      62.26300000 
O      24.20600000      28.94000000      61.43600000 
H      19.31600000      29.27300000      59.71400000 
H      19.80100000      27.18800000      61.71200000 
H      21.60600000      28.20100000      62.90700000 
H      22.06700000      27.69200000      61.29800000 
H      21.82600000      30.01100000      60.50000000 
H      21.47500000      30.57500000      62.10100000 
N      18.86200000      28.61000000      63.46700000 
C      18.03900000      29.31300000      64.44600000 
C      18.72200000      29.15700000      65.79900000 
O      19.12100000      28.07900000      66.12200000 
C      16.61700000      28.67600000      64.51800000 
O      16.06600000      28.74200000      63.20100000 
C      15.81200000      29.45600000      65.53200000 
H      19.15700000      27.68200000      63.67800000 
H      17.93300000      30.30500000      64.14200000 
H      16.74900000      27.64100000      64.81200000 
H      15.25300000      28.36500000      63.17200000 
H      14.73100000      29.00400000      65.47800000 
H      16.15900000      29.30600000      66.54200000 
H      15.75200000      30.42800000      65.26500000 
N      17.45600000      33.80800000      63.26900000 
C      17.14000000      32.91800000      62.25100000 
C      17.79200000      33.28400000      60.96100000 
O      17.75200000      34.58200000      60.64900000 
C      15.57100000      32.97000000      62.04900000 
O      14.97100000      32.60900000      63.31500000 
C      15.10700000      32.01600000      60.96500000 
H      17.54900000      34.81500000      63.05000000 
H      17.37900000      31.89900000      62.48200000 
H      15.32200000      33.97000000      61.78300000 
H      14.07500000      32.69500000      63.29000000 
H      14.03600000      32.04300000      60.89500000 
H      15.53500000      32.28000000      59.95300000 
H      15.42700000      31.00000000      61.20100000 
N      18.24100000      32.43800000      60.16600000 
C      18.75400000      32.59900000      58.88400000 
C      18.46100000      31.47700000      57.94400000 
O      18.44300000      30.29800000      58.46500000 
C      20.40300000      32.69800000      58.99800000 
C      21.05800000      32.69300000      57.56900000 
C      22.57800000      32.87700000      57.78400000 
O      23.30200000      32.29300000      56.93600000 
O      22.92600000      33.64000000      58.61700000 
H      18.30300000      31.41200000      60.57100000 
H      18.39700000      33.58800000      58.48600000 
H      20.59100000      33.56100000      59.53100000 
H      20.61900000      31.80600000      59.54200000 
H      20.85800000      31.76300000      57.10000000 
H      20.64100000      33.47900000      57.03000000 
N      18.25400000      31.69600000      56.74200000 
C      18.24300000      30.66200000      55.70000000 
C      18.87000000      31.22200000      54.51500000 
O      18.77700000      32.41700000      54.17400000 
C      16.82900000      30.13200000      55.42700000 
C      15.88500000      31.33500000      55.04800000 
C      16.82100000      29.02900000      54.35100000 
H      18.25400000      32.63900000      56.34600000 
H      18.81000000      29.86300000      56.06600000 
H      16.48200000      29.74100000      56.34300000 
H      14.88300000      30.85000000      54.81300000 
H      15.80900000      32.00100000      55.77000000 
H      16.23800000      31.73100000      54.08800000 
H      15.85300000      28.58700000      54.32600000 
H      17.06300000      29.45500000      53.38900000 
H      17.57400000      28.26700000      54.60500000 
H      22.41497612      15.15881128      52.96843767 
H      20.73098215      21.08951384      68.88002919 
H      20.50347185      26.36692231      70.20620588 
H      22.59703227      19.67718174      50.81638326 
H      21.20585922      25.69373725      52.94103003 
H      18.82957150      29.94962774      66.39914134 
H      16.81956468      33.77576758      63.90454005 
H      19.41681411      30.63782763      53.91521924 
