 500 
 
N                28.5652912299       34.0567073638       40.1886111193
C                28.9952877447       32.7691452647       39.6699689605
C                28.5747391091       32.6471564928       38.2047460529
O                29.3348831324       32.2045853279       37.3478602031
C                28.4231816012       31.5978106566       40.4947181984
O                27.1019998415       31.2677953733       40.1850740636
H                27.9413129267       34.0780920971       40.9834848520
H                30.0926468986       32.7311561868       39.6998930398
H                29.0176510005       30.7064151006       40.2805703052
H                28.5280212597       31.8424460145       41.5589508613
H                26.5189726468       32.0229901894       40.3956355912
N                22.9339123939       17.0543876048       40.9812619448
C                22.9426524290       16.1146280369       39.8835273900
C                23.6856123879       16.6745313565       38.6688309263
O                23.7740727643       17.8711422215       38.4340878393
C                21.5212566597       15.7004906156       39.4441845901
C                21.1132432589       14.4315761285       40.1921953216
C                19.8741711992       13.7553874419       39.6361584363
O                19.9042298831       12.6253924124       39.1655547494
N                18.7507972413       14.4797808442       39.7168840248
H                22.8224153594       18.0397653691       40.7581515737
H                23.4777159236       15.2254459522       40.2315855701
H                20.8454957776       16.5310411194       39.6420724505
H                21.5177549442       15.4885364391       38.3745251821
H                21.9246353278       13.7179358828       40.0680602744
H                20.9909117188       14.6485511753       41.2544756899
H                18.7470377590       15.3824756710       40.1598291675
H                17.9016312604       14.1088088418       39.3215746557
N                24.1820770862       15.6974640988       37.9057782443
C                24.8485363132       15.8316791364       36.6275482026
C                24.1258205521       14.9252822812       35.6237110494
O                23.7515601401       13.8015969043       35.9340105649
C                26.3333910866       15.3934849502       36.7817863877
C                27.1368335117       16.5595263541       37.3738088560
C                26.9146716156       14.8903920730       35.4623449447
C                28.4840913222       16.1401625462       37.9548322378
H                24.0195413196       14.7370431092       38.1927206062
H                24.7940708189       16.8769481361       36.3107748843
H                26.3459953091       14.5672521058       37.5016691594
H                27.2883603782       17.3166114057       36.6023880221
H                26.5389235773       17.0112201780       38.1669820601
H                27.9717531884       14.6786901924       35.5833641347
H                26.4127605987       13.9790923089       35.1489202250
H                26.7942770381       15.6294808254       34.6746222575
H                28.9685285632       16.9954470788       38.4200572083
H                28.3501064779       15.3622268675       38.7033341914
H                29.1456703742       15.7671491614       37.1786708835
N                24.0092025050       15.4323478824       34.3900153077
C                23.3804112837       14.7076285158       33.3082278530
C                24.2463323971       14.6014036740       32.0420946390
O                24.5582575037       13.5318696354       31.5494993141
C                22.0465039444       15.3588912231       32.8710861732
C                21.0942677358       15.4523552619       34.0221014120
C                21.2316756730       16.5028328468       34.9160723754
C                20.1005150093       14.5102736527       34.2400640570
C                20.3976036718       16.6156955792       36.0072301289
C                19.2415441145       14.6249610757       35.3149463490
C                19.3862224689       15.6837792124       36.2013088063
O                18.5192004669       15.7999437027       37.2415919167
H                24.2657852821       16.4004718469       34.2305860960
H                23.1838366004       13.6993541677       33.6854085486
H                22.2478803386       16.3645193898       32.4999950909
H                21.6199719700       14.7691795707       32.0592847748
H                21.9984902212       17.2413742823       34.7471185583
H                19.9904039297       13.6857906148       33.5540067113
H                20.5292218517       17.4348127560       36.7000572617
H                18.4600549357       13.9024981527       35.4860670241
H                18.8273684099       16.5124428657       37.8198369917
N                26.6009511115       19.4379606323       32.7349324046
C                25.5229864685       20.3115066163       33.1540239519
C                24.5781543484       19.5522384152       34.0999049707
O                24.4048424919       18.3423120982       33.9963376394
C                24.6748205151       20.8009575973       31.9734059239
C                25.3405929084       21.6523019315       30.9197515764
C                26.6925825294       21.9483249088       30.8612952856
C                24.5134499204       22.1425191207       29.9101229267
C                27.2083183634       22.7151248225       29.8271641803
C                25.0154771091       22.8926835223       28.8712353611
C                26.3756982565       23.1874412112       28.8229337322
O                26.8272930570       23.9423763846       27.7912877612
H                26.3831780585       18.6734100133       32.1038745702
H                25.9655472553       21.1587344016       33.6852072538
H                24.2563298390       19.9223686159       31.4730329857
H                23.8354804589       21.3682892704       32.3880378670
H                27.3764471467       21.5845396831       31.6107707362
H                23.4568032237       21.9258204747       29.9472999467
H                28.2660042465       22.9364793395       29.7963997270
H                24.3758483269       23.2445430288       28.0800201318
H                27.7813876780       24.0809310417       27.8577726887
N                23.9599422677       20.3123872383       35.0077864503
C                23.0729447182       19.7631444264       36.0123151003
C                22.3793810244       20.8582588368       36.8125830984
O                22.0342964365       21.9117339910       36.2921280083
H                24.1360424139       21.3095474445       35.0347518365
H                22.2849801534       19.1771829984       35.5221585174
H                23.6299857657       19.1003737519       36.6819617704
N                22.1618174381       20.5225040796       38.0936326588
C                21.5105927554       21.3890533789       39.0486445448
C                22.1290298847       21.1409341970       40.4189704215
O                22.3019429466       20.0137061336       40.8583190127
C                19.9859882733       21.1477279256       39.0824828599
C                19.5731680238       19.6747897815       39.1399119151
C                18.0404692045       19.6092201037       39.1264765414
N                17.5085185853       18.2588279574       38.9735982678
C                17.0235040270       17.5286708949       39.9836823853
N                16.2645022002       16.4687947299       39.7347979558
N                17.4575504427       17.7427956963       41.2293250557
H                22.5124251147       19.6350717827       38.4358743562
H                21.6930674093       22.4200933505       38.7270722057
H                19.5587386163       21.6967376240       39.9241334171
H                19.5735720333       21.5749969673       38.1688385615
H                19.9643620927       19.1675114816       38.2572051300
H                19.9829719841       19.2067158510       40.0348948947
H                17.6392640365       20.0671314060       40.0337776234
H                17.6643862694       20.2062735210       38.2933692454
H                17.1289231251       18.0402625599       38.0608502720
H                15.8721479441       16.3059410696       38.8077528906
H                15.7214436804       16.0740910214       40.4916381147
H                18.0139847268       18.5575139173       41.4401366627
H                16.9912897704       17.2911806485       42.0021422707
N                22.4800675835       22.2478019920       41.0856932888
C                23.0096773926       22.2114434820       42.4292044873
C                22.0359635862       22.9697933375       43.3379607279
O                21.5720728441       24.0612762841       43.0148685492
C                24.4303549791       22.8045272830       42.4971726105
C                25.3258300770       21.9279236803       43.3654851350
C                26.7917699792       22.2817539035       43.3662719786
O                27.5984448847       21.5657533820       43.9740580881
N                27.2043092887       23.3435037940       42.6840463134
H                22.3238154126       23.1564381217       40.6766495980
H                23.0314864782       21.1568600228       42.7184954537
H                24.8230240587       22.8355188295       41.4775451484
H                24.3749591371       23.8178080752       42.8991000494
H                24.9825203102       21.9347631811       44.4037695762
H                25.2407927241       20.8912697017       43.0282040981
H                26.5724123339       24.0157980320       42.2801882665
H                28.1900512738       23.5663233621       42.6806968406
N                21.7362951084       22.3192266910       44.4531894353
C                20.7631770668       22.7532133745       45.4284547062
C                21.4925395885       22.8673048735       46.7677015915
O                21.9817057409       21.8928544493       47.3251883839
C                19.6467864705       21.7001035938       45.5496874489
C                18.6345373751       22.1316964196       46.6042814890
C                18.9771520668       21.4435419873       44.2043193065
H                22.1629928674       21.4182389955       44.6628516966
H                20.3653379117       23.7243943687       45.1189239064
H                20.1364537575       20.7816242109       45.8864702176
H                17.8188517768       21.4154633368       46.6589162817
H                19.1073915344       22.1888986645       47.5818994803
H                18.2256738425       23.1109163171       46.3684205381
H                18.2494137739       20.6442423778       44.3082363349
H                18.4660127158       22.3405268025       43.8646343701
H                19.7148084448       21.1547020326       43.4600293482
N                21.5644240236       24.1136354624       47.2371829776
C                22.1302738376       24.4463725877       48.5219796974
C                21.0442249703       25.1175735157       49.3560012146
O                20.4643306169       26.1135513017       48.9509772504
C                23.3056828655       25.4304875580       48.3535367927
C                24.5234888934       24.6669987612       47.9301040443
C                25.2120358617       23.9111602904       48.8723239980
C                24.9442963644       24.6267180971       46.6118890005
C                26.2480144733       23.0817202718       48.5030783113
C                25.9913310889       23.8061874790       46.2312031686
C                26.6163582549       22.9860632667       47.1625735966
O                27.5759185442       22.0858994882       46.8216910363
H                21.1238135762       24.8760422949       46.7349145588
H                22.4745774806       23.5189083902       48.9897446007
H                23.0234580123       26.1764344708       47.6112756487
H                23.4849141631       25.9411960776       49.3007446804
H                24.9204275768       23.9631548946       49.9113272624
H                24.4497969941       25.2398640495       45.8747663748
H                26.7728911572       22.5011729487       49.2437057060
H                26.3332855153       23.8181137464       45.2097600026
H                27.6882014991       22.0368122275       45.8519772947
N                20.6945205772       28.6605498681       46.9254127981
C                20.8440476366       28.8988373591       45.5068466846
C                20.3302450841       27.6613589077       44.7639328334
O                20.3040362846       26.5594123351       45.2918580086
C                22.3034526930       29.1983797632       45.0718332723
C                22.8030144661       30.4940541299       45.7062373793
C                23.2398491464       28.0441280456       45.4138649320
H                20.7049214113       27.6896032493       47.2212186498
H                20.2333974354       29.7759872544       45.2580383753
H                22.2809319871       29.3284992230       43.9839504531
H                23.8016628939       30.7297183398       45.3437189490
H                22.1354826320       31.3223418366       45.4795539282
H                22.8457958623       30.3953704092       46.7882516893
H                24.2269597637       28.2286261039       44.9983545771
H                23.3413975682       27.9667751122       46.4927225693
H                22.8565003864       27.1048409374       45.0214329320
N                19.9597209145       27.8943369669       43.4977606474
C                19.4900327121       26.8769683075       42.5797484693
C                20.2982309832       27.0692007206       41.2917275523
O                20.1867940469       28.0476311119       40.5653421710
C                17.9605545842       26.9695477750       42.3870555541
C                17.4662055482       25.8388228658       41.4722489856
C                17.5341234455       28.3434768922       41.8714382100
C                17.0764165629       24.5864622729       42.2473420171
H                19.9883025283       28.8346465924       43.1351746422
H                19.7431849037       25.9111416879       43.0294072565
H                17.5198834591       26.8324236431       43.3825026553
H                16.5943834660       26.1789094370       40.9120600304
H                18.2323976489       25.5843255098       40.7349178002
H                16.4628318498       28.3516145000       41.6923560231
H                17.7564479721       29.1153066379       42.6039344288
H                18.0453731830       28.5845631589       40.9434344635
H                16.7418258690       23.8214395946       41.5513876711
H                17.9230621704       24.2062889522       42.8138262376
H                16.2619644203       24.8077284607       42.9347263539
N                21.1936127179       26.0963170191       41.0589857733
C                22.1319815110       26.1641096344       39.9538805000
C                21.7270204406       25.1827613833       38.8431696059
O                22.5307878273       24.5131581024       38.2232836788
C                23.5576273405       25.9348909097       40.4627354720
C                24.6781922032       26.4866303358       39.5703002720
C                24.7071102929       28.0122411767       39.5760802706
C                26.0159047846       25.9437499128       40.0775476894
H                21.3028198860       25.3219551143       41.7121224428
H                22.0333033204       27.1655941673       39.5201654547
H                23.6346125378       26.3887258625       41.4531923200
H                23.7072319790       24.8607776328       40.5623053224
H                24.5170663099       26.1274981707       38.5476002468
H                25.5287519780       28.3728074123       38.9627017891
H                23.7852651656       28.4290973176       39.1784922873
H                24.8482091093       28.3885725394       40.5873769551
H                26.8242976495       26.2583191472       39.4229715489
H                26.2186917150       26.3199620689       41.0785039951
H                25.9964401374       24.8569841097       40.0913828546
N                20.3889800701       25.0910571201       38.6998431455
C                19.7253724875       24.3964722317       37.6165144989
C                18.9038501386       25.4011509715       36.8065417145
O                19.2731628855       25.8339086470       35.7163358620
H                19.8079820088       25.7299340317       39.2267308626
H                20.4776539270       23.9238130931       36.9781313260
H                19.0397030615       23.6512961701       38.0303670893
N                17.8241335380       25.8308571341       37.4750675753
C                16.8151832987       26.6889082260       36.8802310203
C                15.5674492912       25.8291820146       36.6800253967
O                15.3999115434       25.1317025194       35.6912466850
H                17.4516061830       25.2094194322       38.2044127691
H                16.6092232778       27.5271751366       37.5497972533
H                17.1978951639       27.0412499830       35.9206741807
N                14.7176436774       25.8456631366       37.7175537417
C                13.6572018376       24.8633258146       37.8635348381
C                12.4153926869       25.6779977570       38.2610849264
O                12.5246764627       26.5309420121       39.1375009602
C                14.0619132661       23.8191802716       38.9161258385
C                15.5142110723       23.3069722067       38.6291402801
O                16.4400810253       24.0537240840       38.9966166450
O                15.6620702688       22.1918154988       38.0957732313
H                14.9267985536       26.3655567571       38.5592608691
H                13.5334344860       24.3740966090       36.8942427150
H                14.0546732008       24.2750314712       39.9101315322
H                13.3616402088       22.9876289963       38.8828324150
N                11.2619097729       25.4858981570       37.6055010213
C                10.1896284654       26.4802253496       37.7046247746
C                 9.2728540048       26.2220183325       38.9137216169
O                 9.5216691073       26.7095905901       40.0028498833
C                 9.5499270830       26.4366151475       36.3168133362
C                 9.7265133121       24.9874673486       35.8585596711
C                11.0451851724       24.5575776294       36.5058293339
H                10.6592940073       27.4469334567       37.9227917835
H                 8.5170457476       26.7719594879       36.3043722520
H                10.1286520698       27.0826312670       35.6583597884
H                 8.9156690474       24.3350341967       36.1790098414
H                 9.7822763032       24.8970587034       34.7766638283
H                11.0131116217       23.5284556021       36.8736151138
H                11.8616511704       24.6225244539       35.7816637900
N                 8.7957856021       23.9377317129       40.9807984905
C                 9.5040126856       23.4066652559       42.1176947506
C                10.5689910643       24.3750963735       42.6258979601
O                10.7391703814       24.5598881217       43.8278095707
C                10.1340525209       22.0801720748       41.7100329321
O                11.0081797265       22.3149650702       40.6239838858
H                 8.9049347205       23.4147854325       40.1252236829
H                 8.8179106100       23.2124672198       42.9518344362
H                10.6527722806       21.6389741077       42.5680884289
H                 9.3333213832       21.3844589940       41.4359168137
H                11.1045864970       21.4777621123       40.1579281390
N                11.2783461377       25.0233209349       41.7075483343
C                12.3331312533       25.9251151691       42.1160982117
C                11.9250292048       26.7390715851       43.3374525791
O                12.6562792075       26.8524054241       44.3171219632
H                11.2422149200       24.7542667578       40.7360583957
H                13.2456166296       25.3715081551       42.3641615828
H                12.5475966330       26.5946518673       41.2802871845
N                12.0657427090       25.2448347380       46.7836576785
C                13.4367376733       25.0606994644       47.2125989868
C                13.9823573196       26.3601968439       47.8277007495
O                14.5786977267       26.3718955793       48.8950073848
C                14.3068094024       24.6085275422       46.0373756646
C                15.7742828598       24.5609983949       46.4427489619
C                13.8702801105       23.2342143735       45.5408595445
H                11.8820627830       25.2256968780       45.7903265845
H                13.4618009203       24.3008753797       48.0038335387
H                14.1827270579       25.3336990636       45.2247543821
H                16.3623347606       24.3159671884       45.5645689144
H                16.0998483324       25.5206680216       46.8325554396
H                15.9372157189       23.8002926609       47.2033830594
H                14.4710159718       22.9579059104       44.6798049659
H                14.0164057030       22.4786216053       46.3105739012
H                12.8220125005       23.2218593081       45.2474728297
N                13.7464341601       27.4448558742       47.0844471394
C                14.2298357464       28.7620089502       47.4520658638
C                13.9417217905       29.0279797245       48.9321052943
O                14.8032093805       29.4251165286       49.6992934024
C                13.5878834275       29.8442840891       46.5690505756
C                13.9056257538       31.2353968686       47.1136441920
C                14.0884334515       29.7173357586       45.1315613012
H                13.2711098450       27.3457806419       46.1963093601
H                15.3239723639       28.7991894871       47.3440980188
H                12.5048598952       29.6901907917       46.5893314264
H                13.4744059821       31.9903863534       46.4624091091
H                13.4976881133       31.3616218598       48.1132216237
H                14.9823925300       31.3849436740       47.1599199642
H                13.6384092123       30.4898538689       44.5141684811
H                15.1686277607       29.8364562137       45.0967021829
H                13.8351424188       28.7500492962       44.7061423013
N                11.8250354141       17.6342281238       44.2509980103
C                12.5369145918       17.9371370279       43.0204556175
C                13.2543535100       16.6880554029       42.4894394330
O                13.6603959874       16.6477723974       41.3311436710
C                13.3800361497       19.2060163976       43.2138864502
C                13.5632271407       20.0706484520       41.9544788278
C                13.9678837378       21.4829113021       42.3722215135
C                14.6174017780       19.5232769039       41.0002162375
H                12.1195328188       18.0943038891       45.1007202222
H                11.7634369703       18.1600044382       42.2662790481
H                12.8228137434       19.8070211779       43.9385542767
H                14.3443081966       18.9606705860       43.6577676129
H                12.5935920881       20.1198385120       41.4450508173
H                14.1882723025       22.0842170144       41.4941922581
H                13.1612567949       21.9692325135       42.9146678137
H                14.8523098416       21.4482328148       43.0034282006
H                14.7522881392       20.2183705870       40.1728607040
H                15.5473158915       19.4291161626       41.5506702439
H                14.3078711645       18.5572643490       40.6180995001
N                14.8045969028       14.1852374381       32.1690749262
C                15.7060660055       15.2190307660       31.6921719028
C                15.7421261288       15.2415382981       30.1481779616
O                16.6928561633       14.8344195394       29.5050566606
C                17.1042793399       14.9736868965       32.2701093965
C                17.8707574531       16.2476700028       32.4781725638
C                17.5653762131       17.0680797290       33.5558131776
C                18.8905085474       16.6159704745       31.6158630146
C                18.2833093511       18.2249730946       33.7793805368
C                19.6143918126       17.7728915442       31.8417408872
C                19.3206332086       18.5686242443       32.9324009775
H                15.2276205847       13.3008531313       32.4150234253
H                15.3078626239       16.1873779948       32.0201619388
H                16.9995973970       14.4642621660       33.2295362663
H                17.6449583974       14.3305017262       31.5749369139
H                16.7584417764       16.7883654038       34.2153967135
H                19.1086894246       15.9998476241       30.7571819149
H                18.0413944781       18.8759412603       34.6034804665
H                20.4076530603       18.0498100616       31.1633304589
H                19.8824426691       19.4675188843       33.1225099994
N                13.6138147182       18.1939791788       28.3882482459
C                13.5425310729       19.6317848936       28.2369656839
C                13.0587243021       20.3346845242       29.5136357882
O                13.6226814327       21.3253789650       29.9469716597
C                12.6305031326       20.0200125271       27.0694809401
H                12.8009249128       17.6932115894       28.7291785545
H                14.5614195302       19.9747503525       28.0261887150
H                12.6114191075       21.0997996801       26.9568681734
H                13.0136557848       19.5719029529       26.1564060809
H                11.6176212234       19.6631008154       27.2323604902
N                11.9612390000       19.7920452246       30.0751491266
C                11.1940626323       20.3888098175       31.1648380671
C                12.1177585787       21.1733683328       32.0941458745
O                11.9956712474       22.3692036943       32.2930522120
C                10.4377085784       19.2939084956       31.9097717982
C                 9.2625283861       19.8357966344       32.8066776865
O                 8.2575530065       19.1006319296       32.8555641452
O                 9.4397113448       20.9202963720       33.3826133366
H                11.4739052951       19.0466125081       29.5971491253
H                10.4759248379       21.1151824220       30.7592291673
H                 9.9903876033       18.5851374316       31.2116592394
H                11.1051883865       18.7483592966       32.5788412367
N                13.0626127588       20.4134927916       32.6808279066
C                14.1396261098       20.9994726146       33.4395986760
C                15.3955128765       21.0674297839       32.5562158172
O                15.8563284972       20.0410546327       32.0593724391
C                14.4937976259       20.1544438325       34.6721933930
C                13.4423517704       20.1693560481       35.7249001286
N                13.6815764148       20.7185912793       36.9537267413
C                12.1566282997       19.6892494781       35.7831794039
C                12.5657935069       20.5397824412       37.6830003692
N                11.6222344937       19.9264312222       37.0127976422
H                13.2141883629       19.4728543061       32.3505206902
H                13.7919068902       21.9888800959       33.7372244768
H                14.7009195071       19.1339452951       34.3383717477
H                15.4136933648       20.5573892666       35.1020196772
H                14.5220105151       21.2217167678       37.2792826032
H                11.5613587706       19.2174422585       35.0229593717
H                12.4888432853       20.8615604875       38.7042356881
N                15.9527308340       22.2643403091       32.3881015578
C                17.2299705688       22.4065059587       31.7167016489
C                18.3512128503       22.0921706134       32.7193011092
O                18.1340429312       21.7783881931       33.8769906924
C                17.2355953808       23.8623320640       31.2507305268
C                16.4643036437       24.5728765380       32.3607277533
C                15.4209797330       23.5479920739       32.8115136667
H                17.2945538376       21.6851423950       30.8956479571
H                18.2379528320       24.2684611489       31.1309125830
H                16.6939479859       23.9342418212       30.3084081891
H                17.1268479140       24.8034522480       33.1957180931
H                15.9977324671       25.4940967366       32.0225938283
H                15.2942099977       23.5867826080       33.8948366515
H                14.4496742716       23.7074718437       32.3319863499
N                19.5863558174       22.1474409453       32.1893510754
C                20.7832720572       22.0448853668       32.9899475877
C                21.7015944522       23.2347766605       32.7034807558
O                21.6100250079       23.8727604312       31.6648124691
H                19.7274240205       22.5411773241       31.2678090157
H                20.5002407827       22.0199893083       34.0450527320
H                21.3278941684       21.1244414186       32.7412962353
N                22.6183842565       23.4580163233       33.6482296146
C                23.4622896731       24.6462378381       33.6480028766
C                24.8967114195       24.1598813425       33.8393505581
O                25.1258377091       23.1996182864       34.5756891681
C                22.9754812035       25.5494630487       34.8055804135
C                23.0599505712       27.0767661297       34.6399505511
C                24.4225111893       27.6542108764       35.0159859854
C                22.6134891211       27.5426523596       33.2521297642
H                22.5533171136       22.9627023682       34.5335951016
H                23.3234783374       25.1266354060       32.6774443637
H                21.9141553522       25.3162340528       34.9400303353
H                23.4818848541       25.2441584300       35.7252183317
H                22.3317229270       27.4713389883       35.3598967872
H                24.4114648350       28.7338953685       34.8871195406
H                24.6596917674       27.4320518265       36.0538887154
H                25.2183618830       27.2424569915       34.4054973463
H                22.3343660115       28.5928017361       33.2865178673
H                23.4049220782       27.4315020970       32.5155275621
H                21.7453702692       26.9747568288       32.9231904694
N                25.8899575003       24.7720355462       33.1891667369
C                27.2601831067       24.3525019446       33.4503425391
C                27.5188862909       24.2097252864       34.9482921899
O                27.3590505161       25.1372135668       35.7280637468
C                28.0914519957       25.4579644820       32.8030019519
C                27.2562065049       25.7947652179       31.5718726478
C                25.8192220476       25.7196616275       32.0882542192
H                27.4430199394       23.3849966780       32.9690806507
H                28.1555843793       26.3054237108       33.4878973232
H                29.0979774612       25.1167835548       32.5702193118
H                27.4940377779       26.7682657180       31.1568732433
H                27.4140701381       25.0280736944       30.8154460770
H                25.4864980106       26.6947619157       32.4478008194
H                25.1355721402       25.3446020619       31.3258558959
N                28.0111508876       23.0108497169       35.2936971329
C                28.4235961113       22.6546119657       36.6345673808
C                29.9536885143       22.5704910353       36.6922489212
O                30.6215218886       23.3329421083       37.3738172826
C                27.7988649258       21.3180589598       37.0827389237
C                26.2700422832       21.4148704636       37.1985174696
C                28.4386633882       20.8327273963       38.3823943252
C                25.7583062802       22.2846120402       38.3413479271
H                28.0410319252       22.2609542856       34.6127197505
H                28.1199903757       23.4756867467       37.2929652282
H                28.0081629219       20.5881804118       36.2925058710
H                25.8853254489       21.8246460559       36.2655913529
H                25.8808578965       20.4002565880       37.3141108029
H                27.9624298167       19.9051584062       38.6856982752
H                29.5009924261       20.6509041265       38.2457036629
H                28.3207547353       21.5789652167       39.1608833357
H                24.6708542006       22.2938550052       38.3248196500
H                26.0946600584       21.9075065494       39.3019382015
H                26.0932860637       23.3109086481       38.2116789719
N                33.4470815291       25.1971594874       39.3857054824
C                32.5109189807       26.1639136689       38.8642565751
C                32.7580381677       27.5841244290       39.3924321641
O                32.1725239666       28.5510448327       38.9312502362
C                31.0919256145       25.7488154907       39.3098967421
O                31.0240424941       25.5024782069       40.6871199742
H                33.0827508233       24.6229439472       40.1383502115
H                32.5767297588       26.1818982826       37.7719118722
H                30.3992964967       26.5369216274       38.9902257338
H                30.8241669522       24.8061529925       38.8266327713
H                31.2582968641       26.2927826570       41.2000781897
H                29.2842197598       34.5298398112       40.4518362247
H                27.6586822179       32.9317068996       37.9221317609
H                22.2539555638       16.8598540043       41.5378725695
H                24.5760278423       15.4306434343       31.5908050056
H                27.2286307721       19.9197775272       32.3061309081
H                20.7968149391       24.7429485610       50.2495583866
H                21.3663142891       29.0619265925       47.3699236908
H                 8.4606318335       25.6476586690       38.8117112181
H                 7.9137307537       23.9571166647       41.1585721337
H                11.0382262473       27.2008023891       43.3570785587
H                11.5515859377       24.5941706595       47.1333419240
H                13.0234195010       28.8764266049       49.2978272611
H                10.9573300588       17.8543479948       44.1580751450
H                13.3940431944       15.8992738358       43.0880298034
H                14.3834802209       14.4725888811       32.9107553753
H                14.9628283880       15.6012263755       29.6350312786
H                13.7920239776       17.8164701534       27.5909224684
H                30.4365784460       21.8746003244       36.1606913681
H                33.6984877895       24.6371236783       38.7275605251
H                33.4128056265       27.7352854137       40.1329927163
