346
Properties=species:S:1:pos:R:3 pbc="F F F"
N      50.91500000      54.21700000      50.24500000 
C      51.12500000      52.81700000      50.13400000 
C      49.79000000      52.16700000      49.69700000 
O      48.75500000      52.75000000      49.80900000 
C      51.64100000      52.18500000      51.44500000 
C      50.71200000      52.29900000      52.62900000 
C      50.65500000      53.41600000      53.41200000 
C      49.85200000      51.22800000      52.95300000 
C      49.78700000      53.54100000      54.46900000 
C      48.98000000      51.31300000      53.97600000 
C      48.90300000      52.45900000      54.77500000 
H      49.94900000      54.52400000      50.50800000 
H      51.85800000      52.64900000      49.36000000 
H      51.91500000      51.14900000      51.25800000 
H      52.59700000      52.71600000      51.67400000 
H      51.32600000      54.25700000      53.20600000 
H      49.90200000      50.32200000      52.34300000 
H      49.74300000      54.41800000      55.07000000 
H      48.32400000      50.49400000      54.21600000 
H      48.23200000      52.54400000      55.58100000 
N      45.13100000      56.15200000      52.63200000 
C      46.05800000      57.28800000      52.72000000 
C      46.78400000      57.29900000      54.05800000 
O      48.00000000      57.18700000      54.12300000 
C      45.36600000      58.60100000      52.36100000 
C      46.31300000      59.77300000      52.22900000 
C      47.15400000      59.84300000      51.10200000 
C      46.39500000      60.73800000      53.19400000 
C      48.04800000      60.89500000      50.97500000 
C      47.29900000      61.81700000      53.07100000 
C      48.13200000      61.87100000      51.94000000 
O      49.03500000      62.87700000      51.76500000 
H      44.16200000      56.33900000      52.82500000 
H      46.85000000      57.09400000      51.98500000 
H      44.83500000      58.43700000      51.42400000 
H      44.59400000      58.82300000      53.10900000 
H      47.09600000      59.11000000      50.34500000 
H      45.76400000      60.71600000      54.05300000 
H      48.68600000      60.95800000      50.11900000 
H      47.35400000      62.56500000      53.82000000 
H      49.07200000      63.52600000      52.47900000 
N      45.99900000      57.43800000      55.16800000 
C      46.58700000      57.44900000      56.50500000 
C      45.64100000      56.72200000      57.49000000 
O      45.67200000      57.02500000      58.69200000 
C      46.97100000      58.82800000      56.98800000 
C      48.10400000      58.83600000      58.02300000 
C      48.30900000      60.22100000      58.65100000 
N      49.50600000      60.17800000      59.49500000 
C      49.80300000      61.14900000      60.38200000 
N      49.07600000      62.19900000      60.57300000 
N      50.92300000      61.00100000      61.10500000 
H      45.05800000      57.63700000      55.06900000 
H      47.48900000      56.82400000      56.46100000 
H      47.28800000      59.41600000      56.12100000 
H      46.09500000      59.33900000      57.40200000 
H      47.91000000      58.11600000      58.80000000 
H      49.03000000      58.53100000      57.52200000 
H      48.40800000      60.97300000      57.88000000 
H      47.42800000      60.45500000      59.24500000 
H      50.11600000      59.45500000      59.38200000 
H      48.22100000      62.36200000      60.01100000 
H      49.27500000      62.88900000      61.23500000 
H      51.51900000      60.20200000      61.01400000 
H      51.20800000      61.70300000      61.76300000 
N      44.84100000      55.78500000      56.98000000 
C      43.97600000      55.02400000      57.86600000 
C      44.67800000      53.71700000      58.28300000 
O      45.87500000      53.50900000      58.02000000 
C      42.61000000      54.75100000      57.18700000 
C      41.46100000      55.00800000      58.18100000 
O      41.47100000      55.96500000      58.93300000 
N      40.41900000      54.13000000      58.12500000 
H      44.91200000      55.53000000      56.04200000 
H      43.83000000      55.58500000      58.74700000 
H      42.47500000      55.48000000      56.40500000 
H      42.53700000      53.78200000      56.75900000 
H      39.65200000      54.28600000      58.70700000 
H      40.43000000      53.35000000      57.53300000 
N      43.93200000      52.85800000      58.98700000 
C      44.44900000      51.61000000      59.53000000 
C      44.65400000      51.70000000      61.01200000 
O      45.26000000      52.69700000      61.51800000 
H      42.99300000      53.06900000      59.18700000 
H      43.72800000      50.82100000      59.30100000 
H      45.37000000      51.37500000      59.05200000 
N      44.22000000      50.68500000      61.74200000 
C      44.36800000      50.62300000      63.17400000 
C      44.46700000      49.15900000      63.61600000 
O      44.29700000      48.21700000      62.83400000 
C      43.26300000      51.41400000      63.90000000 
C      41.85500000      50.92200000      63.65900000 
O      41.64800000      49.76100000      63.30500000 
O      40.91300000      51.80700000      63.89600000 
H      43.73000000      49.95000000      61.30600000 
H      45.31600000      51.07900000      63.43700000 
H      43.44400000      51.41300000      64.97800000 
H      43.34500000      52.44800000      63.58700000 
N      57.85900000      48.28300000      66.81000000 
C      57.86200000      48.32200000      65.38000000 
C      59.01600000      49.06100000      64.79300000 
O      59.65300000      49.94600000      65.46100000 
C      56.50300000      48.82200000      64.78800000 
C      56.17300000      50.24100000      65.01400000 
C      56.45900000      51.29900000      64.17700000 
C      55.36900000      50.82100000      66.10700000 
N      55.92200000      52.48500000      64.67200000 
C      55.24600000      52.18200000      65.83200000 
C      54.76400000      50.28100000      67.22200000 
C      54.51200000      53.04100000      66.69600000 
C      54.03100000      51.10300000      68.06400000 
C      53.91500000      52.48000000      67.78700000 
H      58.10100000      49.14700000      67.31000000 
H      57.96100000      47.27700000      65.05100000 
H      56.50800000      48.60300000      63.73200000 
H      55.74800000      48.19000000      65.22600000 
H      57.00300000      51.28700000      63.27000000 
H      55.99400000      53.34200000      64.24300000 
H      54.84500000      49.22000000      67.44800000 
H      54.42500000      54.09400000      66.46400000 
H      53.55300000      50.70800000      68.92700000 
H      53.35100000      53.09800000      68.44900000 
N      59.32500000      48.77400000      63.53800000 
C      60.29500000      49.45600000      62.71000000 
C      59.55100000      50.45500000      61.81700000 
O      58.37200000      50.31600000      61.53300000 
C      61.03900000      48.48200000      61.80900000 
C      61.77500000      47.37800000      62.53000000 
O      61.88200000      46.25000000      61.92800000 
O      62.30100000      47.62400000      63.67000000 
H      58.75500000      48.08500000      63.07100000 
H      60.98500000      49.97100000      63.35700000 
H      60.34500000      48.02100000      61.10800000 
H      61.76900000      49.02400000      61.22100000 
N      60.30100000      51.46300000      61.31500000 
C      59.78600000      52.33000000      60.27300000 
C      60.91300000      52.65200000      59.31700000 
O      62.07300000      52.62000000      59.71700000 
C      59.10900000      53.62600000      60.81900000 
C      60.11600000      54.54200000      61.51100000 
C      59.51000000      55.80000000      62.11600000 
O      60.23000000      56.45400000      62.92200000 
O      58.33200000      56.13600000      61.76100000 
H      61.23300000      51.56500000      61.55700000 
H      59.01000000      51.78300000      59.72900000 
H      58.62500000      54.13200000      60.01300000 
H      58.35200000      53.31500000      61.51900000 
H      60.64100000      54.03500000      62.29400000 
H      60.86500000      54.89100000      60.81100000 
N      60.59300000      52.97100000      58.09500000 
C      61.48900000      53.38200000      57.05000000 
C      61.49700000      54.88200000      56.88700000 
O      60.37500000      55.50100000      56.77600000 
C      61.16500000      52.73700000      55.69000000 
C      61.32500000      51.21800000      55.65700000 
C      60.66100000      50.64800000      54.38600000 
C      62.80800000      50.79300000      55.74200000 
H      59.57900000      52.98100000      57.82800000 
H      62.49900000      53.07700000      57.38400000 
H      60.14400000      52.99900000      55.45600000 
H      61.79600000      53.17900000      54.93800000 
H      60.80400000      50.78500000      56.51100000 
H      60.77900000      49.57800000      54.33300000 
H      59.63600000      50.89600000      54.34100000 
H      61.16000000      51.07300000      53.49200000 
H      62.88900000      49.70100000      55.72500000 
H      63.34600000      51.17100000      54.88300000 
H      63.28100000      51.14200000      56.63000000 
N      46.13600000      51.18700000      68.60800000 
C      47.38600000      51.76400000      68.10900000 
C      47.12400000      52.15800000      66.65200000 
O      47.14400000      51.29700000      65.77100000 
C      48.58000000      50.80500000      68.24600000 
C      48.75300000      50.35100000      69.69100000 
C      49.84600000      51.51300000      67.72400000 
C      48.14900000      48.98900000      70.05900000 
H      45.77000000      50.39300000      68.13000000 
H      47.59100000      52.63600000      68.70300000 
H      48.39000000      49.94100000      67.62100000 
H      49.82900000      50.30400000      69.93300000 
H      48.34900000      51.11500000      70.38100000 
H      50.70400000      50.79600000      67.76800000 
H      49.75900000      51.83700000      66.71000000 
H      50.10600000      52.34800000      68.34900000 
H      48.24800000      48.77500000      71.09400000 
H      47.08300000      48.95400000      69.79800000 
H      48.64100000      48.19800000      69.49000000 
N      46.83100000      53.45200000      66.36600000 
C      46.64000000      53.84500000      64.97400000 
C      47.94700000      53.81200000      64.20300000 
O      49.01600000      54.10100000      64.74900000 
C      46.11800000      55.31700000      65.06800000 
C      45.66600000      55.45200000      66.53000000 
C      46.64700000      54.54900000      67.31900000 
H      45.90500000      53.20900000      64.50300000 
H      46.91400000      56.00300000      64.87100000 
H      45.32700000      55.48800000      64.37400000 
H      45.69500000      56.47700000      66.87900000 
H      44.65200000      55.08100000      66.65900000 
H      47.56700000      55.05800000      67.49400000 
H      46.22200000      54.21600000      68.23700000 
N      47.85500000      53.53600000      62.90700000 
C      49.05400000      53.60200000      62.07100000 
C      49.39300000      55.09400000      61.80100000 
O      48.57300000      55.97900000      61.86800000 
C      48.84100000      52.84200000      60.73100000 
C      49.26300000      51.37600000      60.75700000 
C      50.76300000      51.21200000      60.86200000 
C      48.57600000      50.55100000      61.87900000 
H      46.99100000      53.29300000      62.48100000 
H      49.86200000      53.18800000      62.59400000 
H      47.78700000      52.93900000      60.44200000 
H      49.41000000      53.33900000      59.94800000 
H      48.93700000      50.95600000      59.81800000 
H      51.06200000      50.16500000      60.75600000 
H      51.27500000      51.76800000      60.03500000 
H      51.17400000      51.57100000      61.78600000 
H      48.84300000      49.51300000      61.79000000 
H      48.85200000      50.89300000      62.85100000 
H      47.48000000      50.62000000      61.79800000 
N      50.69700000      55.30600000      61.50300000 
C      51.24600000      56.65300000      61.38000000 
C      52.04500000      56.86900000      60.11500000 
O      52.91700000      57.72000000      60.04200000 
C      52.05500000      57.03900000      62.64300000 
C      53.26400000      56.14900000      62.93900000 
C      54.19400000      56.75800000      64.01400000 
C      55.66100000      56.52300000      63.71400000 
N      56.15900000      57.36000000      62.58900000 
H      51.33500000      54.54100000      61.52700000 
H      50.41400000      57.31600000      61.31900000 
H      52.39100000      58.07200000      62.49900000 
H      51.37700000      57.04600000      63.47900000 
H      52.94200000      55.18000000      63.26500000 
H      53.82800000      55.99600000      62.02000000 
H      54.02600000      57.83200000      64.10400000 
H      53.96100000      56.33500000      64.99100000 
H      56.29500000      56.77800000      64.59900000 
H      55.86200000      55.50000000      63.46000000 
H      57.09400000      57.03100000      62.29000000 
H      55.54600000      57.31400000      61.80100000 
H      56.21800000      58.34200000      62.85900000 
N      51.64800000      56.11700000      59.02200000 
C      52.22900000      56.32300000      57.73100000 
C      52.93200000      55.04600000      57.22700000 
O      52.39800000      53.95100000      57.40100000 
H      50.95100000      55.46400000      59.13100000 
H      51.46500000      56.55600000      57.00200000 
H      52.93200000      57.15300000      57.75400000 
N      54.10100000      55.21200000      56.59800000 
C      54.84200000      54.10600000      56.02400000 
C      55.61100000      53.39200000      57.09800000 
O      56.58600000      53.92800000      57.68700000 
C      55.76400000      54.62200000      54.90800000 
C      55.01500000      54.71800000      53.59700000 
O      54.59200000      53.67600000      53.08000000 
N      54.82800000      55.92300000      53.06600000 
H      54.50600000      56.11200000      56.55700000 
H      54.12900000      53.41400000      55.58200000 
H      56.20900000      55.58300000      55.20100000 
H      56.57500000      53.92600000      54.75500000 
H      54.32500000      55.95800000      52.18700000 
H      55.09900000      56.78300000      53.44000000 
N      55.18100000      52.13800000      57.39400000 
C      55.67700000      51.27700000      58.44700000 
C      55.95800000      49.91300000      57.82300000 
O      55.15600000      49.43600000      56.99000000 
C      54.63400000      51.17000000      59.58900000 
C      54.86300000      49.99100000      60.53300000 
C      54.59900000      52.50800000      60.37600000 
H      54.40200000      51.79900000      56.88800000 
H      56.60200000      51.69400000      58.82600000 
H      53.66700000      51.03400000      59.10700000 
H      54.15300000      50.02400000      61.33900000 
H      54.76300000      49.04700000      60.02800000 
H      55.87100000      50.03500000      60.97400000 
H      53.83400000      52.45200000      61.14200000 
H      55.54600000      52.68000000      60.85700000 
H      54.36900000      53.33800000      59.73800000 
N      57.05000000      49.29000000      58.19600000 
C      57.49300000      47.98700000      57.69100000 
C      57.87900000      47.14900000      58.89600000 
O      58.91800000      47.42200000      59.53900000 
C      58.73100000      48.21700000      56.78000000 
C      59.38600000      46.93700000      56.21400000 
C      59.15600000      46.70100000      54.70700000 
N      60.36800000      46.15200000      54.06700000 
C      60.58000000      44.95800000      53.57300000 
N      61.74300000      44.61300000      53.03900000 
N      59.59100000      43.98500000      53.57400000 
H      57.68200000      49.74700000      58.85800000 
H      56.68000000      47.55200000      57.15700000 
H      58.36800000      48.84400000      55.95000000 
H      59.42500000      48.78200000      57.31800000 
H      60.48100000      47.06500000      56.35700000 
H      59.12700000      46.06200000      56.76700000 
H      58.31400000      46.05600000      54.55100000 
H      58.94300000      47.62500000      54.20900000 
H      61.11700000      46.76900000      54.02000000 
H      62.49400000      45.31300000      53.03500000 
H      61.94200000      43.76100000      52.66400000 
H      58.71600000      44.15100000      53.93700000 
H      59.80100000      43.09300000      53.18500000 
N      57.05500000      46.14300000      59.22400000 
C      57.16200000      45.20300000      60.32700000 
C      56.47700000      45.75900000      61.58100000 
O      56.64200000      46.93200000      61.94600000 
C      58.59900000      44.82400000      60.76200000 
C      59.47400000      44.37000000      59.64600000 
O      59.03700000      43.73600000      58.65600000 
N      60.79900000      44.65200000      59.78000000 
H      56.26000000      46.00100000      58.64200000 
H      56.66700000      44.32300000      60.00700000 
H      59.06500000      45.62600000      61.30500000 
H      58.50400000      43.97900000      61.44000000 
H      61.42500000      44.33300000      59.08700000 
H      61.13500000      45.22500000      60.52900000 
N      50.17500000      44.47400000      56.97600000 
C      49.38200000      45.65900000      57.23800000 
C      48.03100000      45.53800000      56.54800000 
O      47.96800000      45.04600000      55.41200000 
C      50.20500000      46.87500000      56.71600000 
C      50.08100000      48.21200000      57.46600000 
C      51.16000000      49.15500000      56.94700000 
C      48.68900000      48.89200000      57.31900000 
H      50.87900000      44.52700000      56.28700000 
H      49.23800000      45.75900000      58.31700000 
H      51.25100000      46.58500000      56.78100000 
H      49.99300000      47.01800000      55.66400000 
H      50.24000000      48.02700000      58.51700000 
H      51.12900000      50.11500000      57.49100000 
H      52.15600000      48.73300000      57.11700000 
H      51.04800000      49.36100000      55.90800000 
H      48.73300000      49.90000000      57.65000000 
H      48.37300000      48.88500000      56.27000000 
H      47.92400000      48.37600000      57.89300000 
H      51.46072517      54.55349937      50.87662664 
H      49.78550227      51.24350255      49.31342180 
H      45.15076007      55.81195166      51.79894738 
H      44.67605067      48.93730734      64.56844432 
H      57.03708507      48.06225687      67.10279398 
H      62.36501855      55.37811750      56.86672165 
H      46.24775602      50.91920247      69.45993607 
H      55.87984176      45.17118102      62.12677548 
H      50.60434395      44.22759151      57.72762932 
H      47.20297504      45.85419074      57.01103141 
