258
Properties=species:S:1:pos:R:3 pbc="F F F"
N      46.37600000      37.58300000      52.32900000 
C      46.50300000      39.07600000      52.28000000 
C      47.88400000      39.46200000      52.03300000 
O      48.88100000      38.67000000      52.25800000 
C      45.90700000      39.65500000      53.57200000 
C      46.86200000      39.29900000      54.76500000 
C      44.51000000      39.13000000      53.79200000 
C      46.32900000      39.86400000      56.08400000 
H      46.77200000      37.14100000      53.05600000 
H      45.90500000      39.38400000      51.48300000 
H      45.94700000      40.71800000      53.44300000 
H      46.95200000      38.27500000      54.83400000 
H      47.82300000      39.73200000      54.59900000 
H      44.04700000      39.74900000      54.56600000 
H      43.95900000      39.23700000      52.93400000 
H      44.54400000      38.14300000      54.13000000 
H      47.00400000      39.71000000      56.86900000 
H      46.09500000      40.92300000      56.00000000 
H      45.38200000      39.33500000      56.35300000 
N      48.07400000      40.70700000      51.64800000 
C      49.42000000      41.13900000      51.34300000 
C      49.44300000      42.70200000      51.51000000 
O      48.54800000      43.30100000      51.95600000 
C      49.95600000      40.75200000      49.96700000 
C      51.38400000      40.24400000      49.90000000 
C      51.79700000      39.77400000      48.58700000 
O      53.07000000      39.90000000      48.30400000 
O      50.96200000      39.39200000      47.80100000 
H      47.37700000      41.23600000      51.34800000 
H      50.10100000      40.79700000      52.11200000 
H      49.32800000      39.78200000      49.70500000 
H      49.75000000      41.42400000      49.25200000 
H      52.08300000      41.12400000      50.24900000 
H      51.56100000      39.51100000      50.63000000 
N      50.57800000      43.31600000      51.05000000 
C      50.78300000      44.68100000      51.15400000 
C      51.97300000      45.01000000      50.25200000 
O      52.92200000      44.23500000      50.23500000 
C      51.01300000      45.11900000      52.65800000 
C      51.80500000      44.22400000      53.50800000 
O      51.57100000      44.20500000      54.68200000 
N      52.78100000      43.48000000      52.91500000 
H      51.31900000      42.71300000      50.66500000 
H      49.91000000      45.19300000      50.82100000 
H      51.48900000      46.09000000      52.62600000 
H      50.06500000      45.21300000      53.08000000 
H      53.30200000      42.87600000      53.55500000 
H      53.01300000      43.52300000      52.01900000 
N      44.09800000      52.77300000      59.10800000 
C      44.51500000      51.49700000      59.62900000 
C      44.83300000      51.58700000      61.10200000 
O      45.41400000      52.59300000      61.60600000 
H      43.14900000      53.08400000      59.35700000 
H      43.77800000      50.78200000      59.43000000 
H      45.43200000      51.27000000      59.10800000 
N      55.78300000      40.35800000      61.45900000 
C      55.78900000      40.88300000      60.14100000 
C      54.40100000      40.90000000      59.57900000 
O      54.09600000      40.46100000      58.42800000 
C      56.74400000      40.06200000      59.30200000 
C      58.15900000      40.18100000      59.76900000 
O      58.36000000      40.77900000      60.89700000 
O      59.08200000      39.65600000      58.99900000 
H      56.55700000      40.63500000      62.02100000 
H      56.13600000      41.86300000      60.18000000 
H      56.46700000      39.02200000      59.30400000 
H      56.70600000      40.36000000      58.23800000 
N      53.48700000      41.40000000      60.31300000 
C      52.06400000      41.11900000      60.12000000 
C      51.45800000      42.05500000      59.09700000 
O      51.83100000      43.24300000      59.07100000 
C      51.38600000      40.90200000      61.51100000 
C      51.56900000      42.00100000      62.56300000 
C      51.10400000      43.30300000      62.14500000 
C      51.04700000      41.56900000      63.86500000 
H      53.76800000      41.80000000      61.26400000 
H      52.09300000      40.12700000      59.66300000 
H      50.30500000      40.85500000      61.29000000 
H      51.71700000      40.00000000      61.84700000 
H      52.69300000      42.08500000      62.69000000 
H      51.23300000      44.05800000      62.91800000 
H      51.51000000      43.69000000      61.25100000 
H      49.98000000      43.25700000      61.99900000 
H      51.19900000      42.25400000      64.60400000 
H      49.95300000      41.38100000      63.77800000 
H      51.46900000      40.61800000      64.20500000 
N      50.64300000      41.52400000      58.22800000 
C      50.26700000      42.41500000      57.07900000 
C      49.52500000      43.64000000      57.49000000 
O      48.67500000      43.62000000      58.46400000 
C      49.36300000      41.46600000      56.26300000 
C      49.94500000      40.13400000      56.55600000 
C      50.24300000      40.17400000      58.02300000 
H      51.16700000      42.71200000      56.55500000 
H      48.40600000      41.55500000      56.53900000 
H      49.46400000      41.76400000      55.20600000 
H      49.28600000      39.30100000      56.26600000 
H      50.91700000      39.96100000      55.98400000 
H      49.37100000      39.95100000      58.58600000 
H      51.01700000      39.48000000      58.30900000 
N      49.77200000      44.66700000      56.79900000 
C      49.23100000      46.01600000      57.06800000 
C      47.86900000      46.13500000      56.53900000 
O      47.51800000      46.96600000      55.58900000 
C      50.21900000      47.08300000      56.53200000 
C      50.33900000      48.20200000      57.48900000 
C      51.41700000      49.16700000      57.01400000 
C      49.13200000      48.97100000      57.73300000 
H      50.41600000      44.60800000      56.01700000 
H      49.16300000      46.12200000      58.11500000 
H      51.11100000      46.64700000      56.30300000 
H      49.81900000      47.46200000      55.61400000 
H      50.71000000      47.80100000      58.42000000 
H      51.52800000      50.05800000      57.65000000 
H      52.42400000      48.69500000      56.99000000 
H      51.23700000      49.50200000      56.00400000 
H      49.21400000      49.72700000      58.45900000 
H      48.71900000      49.38100000      56.85600000 
H      48.30500000      48.28600000      58.13300000 
N      46.90400000      45.34100000      57.07700000 
C      45.55200000      45.32800000      56.70000000 
C      44.94800000      46.62000000      57.23800000 
O      45.33800000      47.33000000      58.03900000 
C      44.90500000      44.09700000      57.30600000 
C      44.86300000      44.24200000      58.79200000 
C      43.56400000      43.86700000      56.67700000 
H      47.29000000      44.72500000      57.79700000 
H      45.51400000      45.31000000      55.63400000 
H      45.55100000      43.29700000      57.02800000 
H      44.50400000      43.27500000      59.25000000 
H      45.80300000      44.39300000      59.25800000 
H      44.14500000      44.99600000      59.10800000 
H      43.25400000      42.78700000      56.82500000 
H      42.78700000      44.46000000      57.14500000 
H      43.52600000      44.04400000      55.66500000 
N      43.71100000      46.83400000      56.59500000 
C      42.85300000      47.95200000      56.89700000 
C      42.44100000      48.06000000      58.35300000 
O      42.53600000      49.04600000      58.96500000 
C      41.63900000      47.82100000      55.99500000 
C      40.50200000      48.73900000      56.24300000 
C      40.69200000      50.10000000      55.71900000 
N      40.93400000      50.04100000      54.26600000 
C      41.25100000      51.02300000      53.54300000 
N      41.35200000      52.18200000      54.01800000 
N      41.48500000      50.81700000      52.22200000 
H      43.39500000      46.24600000      55.87300000 
H      43.39200000      48.89900000      56.71200000 
H      41.97300000      47.86300000      55.03800000 
H      41.30200000      46.80700000      56.18800000 
H      39.62100000      48.36300000      55.85300000 
H      40.32400000      48.86900000      57.36900000 
H      39.91200000      50.76800000      55.90000000 
H      41.64400000      50.57700000      56.11700000 
H      40.78500000      49.09800000      53.83100000 
H      41.20800000      52.38800000      54.93800000 
H      41.63100000      53.02300000      53.40200000 
H      41.39900000      49.89000000      51.83200000 
H      41.78600000      51.55200000      51.58300000 
N      41.94700000      46.90300000      58.88700000 
C      41.41300000      46.93000000      60.18700000 
C      41.68400000      45.51400000      60.83600000 
O      41.32100000      44.52300000      60.21500000 
C      39.93500000      47.16800000      60.18800000 
C      39.22800000      47.18100000      61.56400000 
C      37.72900000      47.43000000      61.45700000 
C      37.49200000      48.93500000      61.05400000 
N      36.05600000      49.15000000      60.90200000 
H      41.71700000      46.12500000      58.29800000 
H      41.90200000      47.67000000      60.79800000 
H      39.78400000      48.17900000      59.71200000 
H      39.44700000      46.43100000      59.55600000 
H      39.37800000      46.16200000      62.04200000 
H      39.76000000      47.93200000      62.23100000 
H      37.31100000      46.78700000      60.78700000 
H      37.30400000      47.31600000      62.46800000 
H      37.88200000      49.59500000      61.74800000 
H      37.93600000      49.10200000      60.03400000 
H      35.85200000      50.06700000      60.65600000 
H      35.62300000      48.52200000      60.25600000 
H      35.55600000      48.97300000      61.82900000 
N      42.30200000      45.52700000      61.95700000 
C      42.58800000      44.26800000      62.68000000 
C      42.15700000      44.47900000      64.07100000 
O      42.48700000      45.41700000      64.75400000 
C      44.11200000      43.99000000      62.64300000 
C      44.37300000      42.67300000      63.20100000 
C      45.80500000      42.26200000      63.08000000 
N      46.31800000      42.28800000      61.80000000 
C      46.14400000      41.30900000      60.85900000 
N      45.48600000      40.18500000      61.22200000 
N      46.68500000      41.43400000      59.67200000 
H      42.67900000      46.42900000      62.41900000 
H      42.03200000      43.52100000      62.19700000 
H      44.37700000      43.97400000      61.58100000 
H      44.61200000      44.72900000      63.11900000 
H      44.08900000      42.60400000      64.30500000 
H      43.74400000      41.82300000      62.72700000 
H      46.43700000      42.98800000      63.67000000 
H      46.00800000      41.27000000      63.57700000 
H      46.78600000      43.11400000      61.43500000 
H      44.97500000      40.10100000      62.07900000 
H      45.41900000      39.48000000      60.55500000 
H      47.25100000      42.17300000      59.40400000 
H      46.52700000      40.70400000      58.96500000 
N      40.37100000      40.37500000      60.75900000 
C      41.22300000      40.97500000      59.77500000 
C      40.37800000      41.33600000      58.60400000 
O      39.82400000      40.42700000      57.99700000 
C      42.41500000      40.11800000      59.55900000 
C      42.15200000      38.67100000      59.23100000 
C      43.25700000      40.77100000      58.38900000 
H      39.83400000      39.58400000      60.43100000 
H      41.55600000      41.95300000      60.28100000 
H      43.01000000      40.17000000      60.44500000 
H      42.99400000      38.17500000      59.03200000 
H      41.60800000      38.21500000      60.07800000 
H      41.46600000      38.62800000      58.35400000 
H      44.19700000      40.21100000      58.31800000 
H      42.76900000      40.69000000      57.51700000 
H      43.52700000      41.77100000      58.64800000 
N      40.20600000      42.58200000      58.33100000 
C      39.21800000      43.06800000      57.39800000 
C      39.71300000      44.21400000      56.63500000 
O      40.38400000      45.09500000      57.09900000 
C      37.97200000      43.55200000      58.15300000 
C      37.38400000      42.38700000      58.99700000 
C      36.19200000      42.69400000      59.87700000 
O      35.63900000      43.88100000      59.64900000 
O      35.81700000      41.96700000      60.68400000 
H      40.65300000      43.34300000      58.89300000 
H      38.95500000      42.22300000      56.76300000 
H      38.22800000      44.34000000      58.79400000 
H      37.20300000      43.79800000      57.49700000 
H      37.14100000      41.51600000      58.45400000 
H      38.18600000      42.03500000      59.75800000 
N      39.27100000      44.31000000      55.37700000 
C      39.50000000      45.43900000      54.49900000 
C      38.29900000      45.67600000      53.64800000 
O      38.06900000      44.81800000      52.69400000 
C      40.70600000      45.21800000      53.64500000 
C      41.04700000      46.35500000      52.77000000 
O      40.51500000      47.49500000      52.96400000 
N      41.90800000      46.20200000      51.75000000 
H      38.74500000      43.50200000      54.91100000 
H      39.63500000      46.28200000      55.10900000 
H      41.58600000      45.05700000      54.27100000 
H      40.59300000      44.33600000      53.02400000 
H      42.18600000      46.91100000      51.20000000 
H      42.27500000      45.31400000      51.59500000 
H      45.50546110      37.35628509      52.35661111 
H      51.96368592      45.84049439      49.69505088 
H      44.65277740      53.41546157      59.40710729 
H      44.58367440      50.83655985      61.71410810 
H      55.04004923      40.63062835      61.88759997 
H      41.54860855      43.81886308      64.51154408 
H      40.86904203      40.08117789      61.44865404 
H      37.71114094      46.46609385      53.82170500 
