581
Properties=species:S:1:pos:R:3 pbc="F F F"
N       9.94300000      15.24800000      32.26100000 
C       9.67600000      13.98900000      31.50400000 
C      10.95900000      13.60700000      30.81400000 
O      11.06100000      13.64400000      29.58600000 
C       8.53500000      14.17500000      30.53100000 
C       7.18900000      14.03000000      31.20200000 
S       5.82000000      14.01800000      29.94000000 
C       5.12300000      15.72200000      30.18600000 
H       9.09400000      15.59600000      32.67900000 
H      10.60100000      15.10400000      33.01100000 
H      10.31900000      15.96400000      31.65700000 
H       9.43600000      13.23600000      32.23700000 
H       8.62300000      15.13300000      30.04200000 
H       8.63500000      13.42100000      29.77000000 
H       7.12800000      13.09300000      31.72900000 
H       6.97200000      14.83200000      31.88700000 
H       4.38200000      15.86900000      29.42100000 
H       4.67300000      15.77800000      31.16000000 
H       5.91200000      16.44600000      30.08600000 
N      11.93700000      13.19400000      31.61200000 
C      13.27600000      13.01800000      31.11500000 
C      13.39600000      11.88800000      30.15600000 
O      14.41900000      11.77300000      29.45600000 
H      11.76800000      13.05200000      32.58000000 
H      13.57600000      13.89400000      30.56000000 
H      13.94600000      12.86300000      31.94300000 
N      12.21200000      12.02600000      27.41700000 
C      12.40600000      12.64100000      26.12800000 
C      13.86800000      12.71200000      25.78700000 
O      14.23100000      12.75800000      24.59300000 
C      11.76900000      14.01600000      26.09900000 
H      11.78600000      12.54800000      28.15700000 
H      11.96600000      12.01700000      25.36800000 
H      11.89800000      14.45700000      25.12300000 
H      10.71200000      13.92200000      26.30000000 
H      12.21500000      14.65500000      26.84500000 
N      14.74500000      12.70100000      26.77600000 
C      16.16200000      12.75100000      26.51800000 
C      16.57000000      11.61000000      25.62700000 
O      17.55000000      11.70800000      24.86600000 
C      16.92800000      12.70400000      27.84400000 
C      17.16100000      11.28500000      28.35100000 
C      17.36900000      11.14300000      29.84300000 
N      18.18400000      12.21500000      30.40500000 
C      18.60700000      12.21600000      31.65800000 
N      18.55400000      11.11200000      32.38300000 
N      19.08200000      13.32100000      32.21200000 
H      14.44700000      12.65100000      27.72600000 
H      16.40500000      13.65800000      25.99500000 
H      17.87600000      13.19500000      27.68800000 
H      16.36400000      13.28300000      28.55600000 
H      16.30000000      10.68200000      28.12900000 
H      18.00000000      10.86500000      27.81700000 
H      16.41200000      11.15400000      30.33100000 
H      17.85300000      10.19800000      30.02500000 
H      18.26700000      13.05100000      29.88400000 
H      18.27100000      10.24500000      31.99800000 
H      18.83900000      11.12200000      33.33500000 
H      19.04200000      14.18900000      31.74100000 
H      19.48200000      13.30700000      33.11900000 
N      30.44500000      23.32900000      15.76900000 
C      29.45700000      24.34600000      15.56600000 
C      28.75900000      24.70200000      16.84000000 
O      28.27500000      25.85100000      16.97900000 
C      28.46900000      23.92400000      14.48700000 
C      27.68900000      25.09500000      13.91200000 
C      28.60300000      26.08900000      13.21600000 
C      27.87200000      27.34400000      12.79500000 
N      28.84300000      28.47600000      12.80800000 
H      30.32200000      22.41700000      15.38600000 
H      29.96600000      25.24400000      15.27400000 
H      29.03900000      23.45800000      13.70100000 
H      27.79800000      23.17600000      14.88400000 
H      26.96100000      24.71500000      13.20700000 
H      27.14600000      25.60100000      14.69700000 
H      29.39000000      26.38500000      13.88800000 
H      29.07600000      25.62500000      12.36100000 
H      27.44200000      27.27200000      11.81400000 
H      27.11000000      27.60500000      13.50600000 
H      28.43700000      29.32700000      12.45600000 
H      29.10400000      28.61200000      13.78000000 
H      29.65800000      28.26900000      12.25800000 
N      28.67000000      23.79100000      17.78900000 
C      27.93000000      24.00500000      19.02100000 
C      28.30000000      25.32600000      19.63900000 
O      27.43400000      26.12800000      20.02400000 
C      28.24900000      22.82500000      19.93800000 
C      27.45200000      22.71400000      21.23400000 
C      27.86100000      23.72100000      22.29900000 
C      25.95400000      22.76900000      20.98100000 
H      29.04500000      22.88100000      17.61900000 
H      26.87700000      24.05600000      18.80900000 
H      28.06200000      21.93500000      19.35300000 
H      29.30700000      22.84300000      20.15800000 
H      27.68500000      21.72900000      21.62000000 
H      27.36700000      23.48500000      23.23400000 
H      28.93100000      23.69600000      22.46700000 
H      27.58000000      24.72500000      22.02400000 
H      25.41400000      22.51200000      21.88300000 
H      25.64900000      23.76200000      20.68100000 
H      25.66800000      22.07300000      20.20200000 
N      29.59400000      25.59100000      19.78100000 
C      30.06300000      26.77200000      20.46900000 
C      29.53000000      28.02400000      19.83900000 
O      29.39200000      29.05500000      20.51200000 
C      31.59700000      26.73500000      20.48000000 
C      32.30600000      28.07400000      20.67000000 
C      33.66000000      27.85200000      21.32800000 
C      32.50600000      28.77500000      19.33300000 
H      30.26500000      24.94400000      19.44100000 
H      29.69300000      26.77900000      21.48100000 
H      31.87900000      26.05500000      21.26900000 
H      31.93100000      26.30500000      19.54600000 
H      31.70900000      28.70500000      21.31200000 
H      34.20000000      28.78600000      21.40200000 
H      33.54600000      27.44000000      22.32300000 
H      34.25500000      27.16300000      20.74000000 
H      33.02400000      29.71400000      19.46900000 
H      33.10600000      28.14600000      18.68600000 
H      31.57500000      28.97400000      18.82900000 
N      29.28200000      27.99600000      18.53300000 
C      28.96300000      29.19600000      17.81800000 
C      27.49900000      29.52300000      17.82200000 
O      27.11700000      30.59800000      17.32600000 
C      29.48200000      29.12500000      16.39900000 
O      28.71700000      28.23300000      15.58200000 
H      29.27400000      27.12600000      18.05100000 
H      29.45700000      30.01700000      18.30900000 
H      29.40300000      30.09200000      15.94200000 
H      30.51400000      28.81600000      16.42600000 
H      28.59100000      27.35500000      15.95800000 
N      26.64700000      28.65000000      18.33900000 
C      25.23600000      28.93400000      18.27000000 
C      24.87300000      30.01200000      19.25700000 
O      25.38500000      30.04000000      20.38900000 
C      24.41500000      27.66100000      18.51200000 
C      24.37500000      27.24000000      19.97000000 
C      23.00000000      27.83500000      17.98500000 
H      26.96700000      27.81700000      18.78300000 
H      25.02700000      29.27900000      17.27700000 
H      24.91200000      26.89400000      17.93500000 
H      23.92800000      26.25700000      20.04500000 
H      25.36000000      27.20000000      20.40200000 
H      23.77400000      27.93100000      20.53800000 
H      22.45600000      26.90700000      18.09000000 
H      22.48300000      28.59500000      18.55100000 
H      23.00100000      28.11700000      16.94100000 
N      23.94800000      30.90500000      18.91500000 
C      23.44400000      31.82600000      19.91600000 
C      22.77400000      31.07700000      21.03600000 
O      22.08900000      30.06700000      20.81000000 
C      22.43200000      32.67400000      19.14300000 
C      22.94400000      32.61600000      17.71200000 
C      23.43000000      31.18500000      17.57600000 
H      24.24700000      32.42600000      20.30800000 
H      21.45800000      32.21100000      19.20000000 
H      22.36800000      33.67400000      19.53500000 
H      22.18200000      32.85700000      16.98900000 
H      23.77400000      33.29800000      17.58400000 
H      22.61900000      30.51900000      17.33400000 
H      24.20800000      31.08300000      16.84300000 
N      22.91700000      31.59300000      22.25400000 
C      22.33600000      31.01100000      23.43300000 
C      21.41300000      31.97100000      24.12700000 
O      21.48500000      33.19700000      23.96900000 
C      23.41000000      30.63700000      24.44900000 
C      24.39700000      29.59400000      23.96600000 
C      25.33600000      29.26900000      25.11300000 
C      23.69000000      28.33400000      23.49700000 
H      23.48400000      32.39800000      22.37700000 
H      21.78700000      30.14000000      23.13300000 
H      23.93900000      31.54000000      24.72800000 
H      22.92100000      30.26300000      25.33700000 
H      24.96400000      30.00300000      23.14100000 
H      26.04200000      28.50300000      24.83100000 
H      25.88900000      30.14300000      25.43300000 
H      24.77100000      28.90000000      25.95700000 
H      24.41500000      27.56800000      23.25300000 
H      23.04600000      27.95500000      24.28200000 
H      23.09100000      28.51900000      22.62000000 
N      20.57700000      31.41100000      25.00300000 
C      19.74600000      32.19100000      25.87300000 
C      20.48300000      32.70600000      27.08600000 
O      21.34300000      32.03800000      27.68900000 
C      18.58500000      31.34000000      26.36200000 
C      17.64400000      30.96100000      25.24000000 
C      16.40700000      30.31200000      25.81100000 
N      15.56200000      29.85500000      24.72500000 
C      14.50200000      29.08400000      24.89300000 
N      14.09200000      28.79200000      26.11700000 
N      13.85300000      28.59300000      23.85100000 
H      20.51500000      30.42000000      25.06400000 
H      19.36500000      33.03500000      25.32500000 
H      18.98100000      30.44600000      26.82200000 
H      18.05200000      31.89200000      27.12100000 
H      17.36700000      31.84100000      24.67600000 
H      18.13100000      30.27100000      24.56700000 
H      16.69400000      29.46500000      26.41800000 
H      15.87000000      31.01400000      26.43100000 
H      15.88200000      29.99800000      23.79800000 
H      14.57800000      29.11800000      26.91700000 
H      13.26600000      28.26200000      26.26300000 
H      14.15100000      28.83900000      22.93700000 
H      13.27000000      27.76600000      23.94900000 
N      20.06300000      33.88800000      27.51100000 
C      20.42900000      34.44100000      28.77800000 
C      20.12400000      33.46900000      29.88300000 
O      19.18000000      32.67300000      29.83600000 
C      19.65900000      35.74100000      29.00600000 
C      18.15400000      35.57800000      29.12300000 
C      17.42500000      35.20300000      27.85200000 
O      17.97700000      35.48000000      26.73600000 
O      16.29700000      34.66200000      27.97600000 
H      19.39000000      34.40400000      26.97700000 
H      21.48700000      34.65300000      28.80300000 
H      20.03600000      36.19000000      29.91300000 
H      19.89000000      36.40400000      28.18700000 
H      17.89800000      34.85400000      29.87700000 
H      17.73600000      36.52600000      29.44200000 
N      20.93200000      33.54500000      30.94400000 
C      20.77000000      32.69700000      32.08700000 
C      21.41400000      31.34700000      31.93000000 
O      21.35600000      30.53600000      32.86800000 
H      21.67900000      34.19800000      30.94700000 
H      21.21100000      33.16800000      32.95000000 
H      19.72400000      32.53500000      32.28900000 
N      22.03100000      31.10300000      30.78300000 
C      22.71400000      29.87800000      30.49700000 
C      24.07500000      30.19900000      29.94100000 
O      24.37100000      31.34300000      29.56900000 
C      21.93200000      29.04200000      29.48200000 
C      20.58300000      28.65000000      29.99900000 
C      20.44500000      27.64500000      30.94700000 
C      19.44600000      29.29100000      29.54700000 
C      19.20100000      27.28000000      31.42000000 
C      18.19000000      28.92900000      30.00400000 
C      18.07600000      27.92000000      30.93500000 
O      16.85600000      27.51500000      31.42700000 
H      22.04400000      31.79500000      30.07100000 
H      22.82000000      29.33000000      31.41700000 
H      21.81900000      29.63500000      28.58800000 
H      22.50700000      28.16100000      29.23800000 
H      21.31700000      27.15100000      31.32500000 
H      19.54200000      30.08900000      28.84600000 
H      19.08900000      26.51200000      32.15600000 
H      17.31400000      29.42500000      29.63700000 
H      16.11100000      27.95800000      31.03200000 
N      24.92600000      29.17500000      29.84700000 
C      26.26800000      29.34100000      29.37100000 
C      26.65700000      28.32500000      28.33400000 
O      25.85100000      27.53100000      27.83300000 
H      24.65500000      28.27800000      30.17500000 
H      26.35300000      30.32600000      28.94500000 
H      26.97400000      29.27300000      30.18600000 
N      27.95400000      28.35000000      28.01900000 
C      28.59500000      27.36700000      27.19900000 
C      29.32200000      26.36800000      28.06200000 
O      29.66400000      26.62400000      29.22500000 
C      29.58900000      28.01600000      26.24400000 
C      28.88000000      28.79600000      25.15900000 
C      29.83400000      29.32100000      24.10800000 
N      30.73300000      30.34800000      24.61800000 
C      30.41600000      31.62500000      24.73200000 
N      29.19900000      32.04900000      24.43200000 
N      31.32400000      32.49800000      25.14400000 
H      28.54800000      28.97200000      28.51500000 
H      27.83400000      26.85300000      26.63800000 
H      30.24900000      28.65900000      26.81200000 
H      30.19500000      27.24400000      25.79300000 
H      28.17300000      28.14500000      24.66600000 
H      28.31600000      29.60600000      25.59700000 
H      30.45800000      28.52200000      23.74500000 
H      29.29800000      29.71200000      23.25900000 
H      31.64900000      30.07200000      24.88000000 
H      28.48300000      31.42700000      24.14900000 
H      28.97200000      33.01300000      24.48900000 
H      32.25400000      32.21400000      25.34000000 
H      31.09800000      33.45900000      25.24500000 
N      29.59600000      25.21100000      27.46700000 
C      30.29200000      24.13600000      28.11700000 
C      31.76500000      24.20800000      27.78700000 
O      32.13700000      24.49600000      26.63700000 
C      29.70300000      22.80400000      27.64300000 
C      28.23900000      22.72000000      28.04800000 
C      30.52100000      21.64600000      28.17900000 
C      27.56000000      21.43700000      27.59400000 
H      29.32100000      25.07300000      26.52500000 
H      30.13900000      24.24200000      29.17400000 
H      29.75300000      22.79800000      26.56600000 
H      28.15800000      22.81600000      29.11900000 
H      27.71200000      23.56200000      27.62400000 
H      30.10500000      20.70700000      27.86100000 
H      31.54300000      21.68700000      27.84400000 
H      30.53000000      21.67300000      29.25700000 
H      26.49300000      21.50600000      27.75600000 
H      27.73400000      21.26000000      26.54000000 
H      27.91900000      20.57400000      28.13700000 
N      24.70000000      17.38100000      27.93700000 
C      23.79700000      18.36400000      27.37000000 
C      22.53400000      18.41400000      28.18200000 
O      22.03600000      19.49500000      28.54100000 
C      23.53000000      17.91600000      25.93200000 
C      22.73100000      18.80800000      24.99500000 
C      21.31800000      19.11400000      25.47100000 
C      23.50800000      20.06200000      24.63600000 
H      24.98000000      16.62800000      27.34200000 
H      24.23700000      19.34500000      27.41700000 
H      24.49600000      17.76100000      25.48700000 
H      23.06700000      16.94600000      25.98600000 
H      22.63400000      18.22100000      24.08900000 
H      20.74100000      19.53900000      24.66100000 
H      20.82300000      18.20800000      25.80000000 
H      21.31700000      19.81300000      26.28900000 
H      22.90000000      20.74500000      24.05800000 
H      23.83700000      20.58000000      25.52100000 
H      24.38600000      19.80700000      24.05700000 
N      21.94900000      17.25400000      28.45700000 
C      20.64500000      17.23600000      29.06700000 
C      20.69900000      17.66400000      30.50100000 
O      19.67700000      18.07000000      31.07100000 
C      20.02000000      15.84800000      28.95200000 
C      20.73500000      14.86800000      29.86100000 
C      18.53500000      15.90900000      29.25700000 
H      22.35000000      16.39200000      28.14600000 
H      20.01700000      17.95500000      28.56800000 
H      20.16000000      15.54100000      27.92600000 
H      20.36100000      13.86700000      29.70300000 
H      21.78900000      14.85800000      29.67800000 
H      20.58100000      15.13900000      30.89500000 
H      18.08200000      14.95100000      29.06100000 
H      18.37000000      16.16400000      30.29100000 
H      18.03500000      16.64500000      28.64300000 
N      21.86100000      17.55500000      31.14400000 
C      21.98300000      18.05500000      32.48500000 
C      22.25700000      19.54000000      32.47100000 
O      21.72900000      20.30900000      33.28900000 
C      23.07500000      17.28900000      33.19000000 
O      23.14100000      17.78900000      34.52300000 
H      22.63800000      17.11600000      30.70400000 
H      21.05600000      17.91300000      33.00600000 
H      22.81600000      16.24300000      33.17900000 
H      24.01600000      17.42300000      32.68100000 
H      23.67500000      17.24500000      35.09200000 
N      23.10500000      19.96200000      31.54100000 
C      23.56300000      21.32400000      31.47100000 
C      22.46500000      22.27300000      31.05900000 
O      22.27900000      23.33200000      31.67900000 
C      24.71600000      21.37000000      30.47300000 
C      25.38600000      22.70300000      30.41300000 
C      26.48700000      22.97400000      31.20900000 
C      24.92200000      23.68300000      29.55100000 
C      27.12000000      24.20100000      31.13800000 
C      25.55600000      24.90700000      29.47000000 
C      26.65900000      25.16800000      30.26300000 
H      23.49900000      19.31400000      30.89300000 
H      23.89500000      21.65200000      32.44100000 
H      25.42300000      20.61200000      30.76600000 
H      24.33500000      21.09200000      29.50400000 
H      26.85700000      22.21200000      31.86600000 
H      24.07900000      23.47700000      28.92900000 
H      27.98300000      24.39200000      31.74300000 
H      25.21300000      25.64800000      28.78200000 
H      27.16800000      26.10600000      30.18300000 
N      21.76500000      21.93200000      29.98100000 
C      20.66500000      22.72000000      29.50600000 
C      19.36700000      22.17700000      30.03700000 
O      19.25300000      21.01600000      30.44000000 
C      20.60900000      22.70200000      27.97600000 
C      21.80400000      23.36200000      27.36400000 
C      22.85000000      22.60800000      26.86300000 
C      21.89500000      24.74300000      27.29500000 
C      23.96500000      23.20800000      26.30800000 
C      23.00600000      25.35800000      26.75200000 
C      24.04400000      24.58500000      26.26800000 
O      25.18000000      25.15900000      25.74100000 
H      21.91800000      21.04600000      29.54700000 
H      20.79200000      23.73300000      29.84700000 
H      20.54500000      21.67400000      27.65300000 
H      19.70700000      23.20500000      27.66300000 
H      22.79300000      21.54500000      26.93700000 
H      21.09000000      25.34300000      27.66500000 
H      24.77700000      22.62200000      25.93400000 
H      23.07000000      26.42600000      26.69600000 
H      25.28700000      26.07900000      25.97200000 
N      18.31500000      22.99500000      30.00500000 
C      17.00400000      22.50800000      30.33500000 
C      16.59400000      21.44400000      29.35500000 
O      17.03100000      21.43100000      28.19300000 
C      16.00200000      23.65700000      30.22700000 
C      14.96200000      23.74700000      31.32700000 
C      15.61100000      23.95900000      32.68300000 
C      14.04300000      24.91100000      30.98600000 
H      18.40700000      23.91400000      29.64700000 
H      17.01200000      22.08500000      31.32400000 
H      16.54900000      24.58800000      30.21100000 
H      15.49100000      23.57900000      29.28600000 
H      14.38100000      22.83300000      31.34500000 
H      14.85700000      24.12900000      33.44000000 
H      16.20200000      23.10500000      32.98500000 
H      16.25900000      24.82500000      32.64700000 
H      13.26900000      25.02900000      31.73100000 
H      14.62000000      25.82700000      30.94700000 
H      13.57800000      24.76400000      30.02000000 
N      15.66400000      20.57400000      29.73400000 
C      15.17100000      19.58400000      28.80300000 
C      14.29400000      20.21900000      27.75400000 
O      14.46600000      19.99100000      26.54600000 
C      14.43800000      18.49600000      29.56300000 
C      13.84500000      17.45200000      28.63300000 
C      13.50400000      16.20200000      29.40300000 
O      12.74600000      16.32000000      30.41300000 
O      14.03200000      15.12600000      29.00300000 
H      15.34100000      20.55300000      30.67200000 
H      16.00200000      19.15900000      28.27000000 
H      15.15900000      18.03100000      30.22100000 
H      13.66200000      18.92500000      30.17800000 
H      12.94900000      17.83600000      28.16400000 
H      14.54900000      17.19700000      27.85700000 
N      13.32000000      21.02100000      28.17300000 
C      12.38700000      21.61000000      27.24500000 
C      13.12300000      22.48900000      26.26600000 
O      12.95800000      22.40500000      25.04200000 
C      11.37500000      22.41500000      28.03300000 
O      10.73200000      21.45900000      28.88100000 
C      10.37900000      23.12000000      27.15000000 
H      13.14500000      21.13000000      29.14300000 
H      11.87900000      20.84800000      26.67900000 
H      11.90200000      23.13100000      28.64600000 
H      10.11000000      21.86600000      29.47700000 
H       9.63800000      23.61000000      27.76400000 
H      10.86400000      23.87100000      26.54300000 
H       9.88200000      22.40900000      26.50400000 
N      13.95700000      23.37300000      26.80600000 
C      14.75600000      24.25900000      25.99200000 
C      15.74500000      23.45600000      25.20100000 
O      15.98300000      23.74300000      24.01400000 
C      15.44300000      25.24800000      26.92900000 
C      16.59000000      26.02200000      26.35700000 
C      16.54000000      26.62700000      25.11300000 
C      17.73400000      26.17400000      27.12200000 
C      17.61100000      27.36300000      24.63800000 
C      18.80400000      26.92000000      26.66800000 
C      18.73900000      27.50700000      25.42300000 
O      19.78200000      28.27200000      24.93300000 
H      14.07500000      23.38200000      27.79000000 
H      14.13100000      24.76600000      25.27900000 
H      14.67600000      25.91400000      27.30200000 
H      15.81900000      24.69400000      27.76900000 
H      15.66700000      26.52200000      24.50400000 
H      17.78500000      25.71600000      28.08700000 
H      17.57400000      27.83000000      23.67700000 
H      19.67200000      27.05600000      27.27800000 
H      20.61100000      28.09900000      25.36800000 
N      16.33900000      22.43500000      25.78500000 
C      17.28600000      21.62700000      25.07300000 
C      16.69200000      21.03100000      23.83600000 
O      17.38900000      20.90600000      22.80500000 
H      16.21700000      22.22800000      26.75100000 
H      18.14400000      22.19900000      24.76700000 
H      17.60400000      20.83700000      25.73100000 
N      15.43200000      20.64000000      23.85600000 
C      14.82500000      20.10400000      22.65700000 
C      14.83600000      21.14300000      21.56500000 
O      15.08400000      20.84200000      20.38500000 
C      13.39800000      19.68200000      22.95500000 
H      14.91600000      20.65000000      24.71200000 
H      15.40200000      19.27300000      22.29200000 
H      12.92200000      19.34600000      22.05000000 
H      13.39900000      18.87200000      23.67000000 
H      12.84600000      20.51100000      23.36700000 
N      14.53300000      22.38200000      21.92800000 
C      14.53800000      23.46900000      20.98100000 
C      15.93600000      23.69900000      20.46800000 
O      16.18000000      23.84400000      19.25800000 
C      14.03700000      24.73400000      21.66200000 
C      12.58800000      24.61600000      22.10700000 
C      12.17900000      25.86400000      22.84000000 
O      12.77000000      26.10100000      23.95000000 
O      11.32500000      26.62600000      22.32500000 
H      14.42000000      22.59400000      22.89200000 
H      13.92500000      23.21800000      20.13400000 
H      14.65800000      24.93400000      22.51700000 
H      14.14000000      25.55700000      20.96800000 
H      11.94400000      24.47300000      21.25400000 
H      12.48100000      23.77700000      22.77700000 
N      16.88200000      23.76700000      21.39300000 
C      18.25000000      24.06900000      21.06300000 
C      18.77200000      23.06400000      20.07600000 
O      19.49800000      23.39600000      19.12300000 
C      19.05800000      24.03100000      22.35300000 
C      20.47700000      24.56200000      22.23500000 
C      20.48100000      26.05900000      21.96900000 
C      21.22200000      24.26400000      23.52700000 
H      16.63800000      23.65300000      22.35500000 
H      18.31500000      25.03300000      20.58800000 
H      18.53100000      24.62200000      23.09000000 
H      19.07100000      23.01200000      22.71000000 
H      20.97900000      24.05800000      21.41900000 
H      21.49500000      26.43400000      21.92200000 
H      19.98900000      26.30600000      21.03900000 
H      19.97000000      26.57300000      22.77300000 
H      22.23000000      24.65400000      23.49100000 
H      20.71400000      24.73100000      24.36200000 
H      21.27100000      23.20000000      23.71500000 
N      18.42500000      21.80200000      20.29900000 
C      18.87700000      20.73300000      19.45000000 
C      18.50200000      21.02300000      18.02600000 
O      19.30800000      20.90400000      17.08800000 
C      18.21400000      19.42900000      19.88600000 
O      18.64200000      19.10000000      21.20700000 
C      18.59700000      18.29200000      18.98100000 
H      17.89800000      21.58300000      21.11800000 
H      19.94600000      20.62400000      19.49100000 
H      17.14600000      19.57500000      19.88200000 
H      18.17100000      19.59700000      21.87900000 
H      18.19900000      17.37100000      19.37300000 
H      18.20100000      18.43700000      17.98900000 
H      19.67300000      18.21100000      18.91500000 
N      17.23600000      21.35800000      17.81400000 
C      16.74500000      21.50600000      16.46900000 
C      17.53100000      22.55600000      15.74500000 
O      17.83100000      22.41500000      14.54600000 
C      15.27600000      21.88200000      16.49400000 
H      16.62300000      21.52800000      18.57900000 
H      16.89300000      20.58900000      15.92600000 
H      14.89400000      21.93800000      15.48800000 
H      14.71700000      21.13000000      17.03000000 
H      15.14400000      22.83200000      16.98900000 
N      17.84800000      23.65100000      16.41900000 
C      18.52900000      24.73500000      15.76200000 
C      19.82900000      24.26200000      15.17200000 
O      20.16300000      24.56800000      14.01800000 
C      18.84800000      25.84300000      16.74600000 
C      17.66000000      26.67800000      17.09000000 
O      16.49700000      26.26600000      16.93500000 
N      17.92400000      27.88400000      17.57600000 
H      17.55900000      23.75300000      17.36600000 
H      17.93900000      25.10900000      14.94500000 
H      19.24300000      25.41000000      17.65500000 
H      19.61300000      26.48100000      16.33200000 
H      17.17900000      28.48300000      17.84600000 
H      18.85400000      28.21600000      17.67100000 
N      20.64000000      23.57100000      15.96800000 
C      21.95400000      23.23200000      15.47600000 
C      21.80000000      22.25800000      14.33700000 
O      22.48700000      22.32600000      13.29700000 
C      22.86300000      22.67000000      16.56900000 
C      24.29600000      22.64800000      16.05800000 
C      22.79200000      23.50700000      17.83600000 
H      20.33200000      23.27600000      16.86800000 
H      22.40700000      24.11900000      15.06800000 
H      22.54000000      21.66300000      16.79600000 
H      24.94000000      22.18100000      16.78800000 
H      24.39100000      22.10600000      15.13000000 
H      24.63500000      23.66400000      15.90100000 
H      23.53200000      23.14700000      18.53800000 
H      23.01500000      24.54300000      17.61200000 
H      21.82600000      23.45700000      18.31100000 
N       9.82400000      15.35300000      20.21100000 
C      10.20000000      16.30200000      21.22900000 
C       9.00400000      16.88700000      21.91300000 
O       9.03200000      17.11100000      23.13100000 
C      11.02300000      17.45500000      20.66500000 
O      10.30300000      18.15900000      19.65100000 
C      12.37300000      17.00700000      20.17500000 
H      10.22700000      15.39000000      19.30500000 
H      10.78100000      15.81400000      21.99100000 
H      11.14200000      18.16000000      21.46800000 
H       9.80900000      17.61500000      19.02800000 
H      12.90300000      17.85000000      19.75800000 
H      12.95300000      16.60400000      20.99200000 
H      12.26500000      16.25300000      19.41800000 
H      12.65530678      11.22121053      30.07374820 
H      11.68522730      11.30170552      27.32807294 
H      16.05108387      10.75527215      25.63989764 
H      31.23038668      23.59976323      15.42279913 
H      32.44579988      24.02339574      28.49582494 
H      25.46269251      17.78528743      28.19166018 
H      21.12672628      21.52103576      14.39688497 
H      10.01588796      14.51964958      20.49154605 
H       8.18028915      17.09777016      21.38661955 
