584
Properties=species:S:1:pos:R:3 pbc="F F F"
N      50.56400000      43.27700000      51.04400000 
C      50.78400000      44.68200000      51.16400000 
C      51.94600000      45.00100000      50.25200000 
O      52.92600000      44.23700000      50.24600000 
C      51.01100000      45.12400000      52.62300000 
C      51.80900000      44.21400000      53.49300000 
O      51.56900000      44.18800000      54.70500000 
N      52.77500000      43.47700000      52.94900000 
H      51.30100000      42.72200000      50.66200000 
H      49.91400000      45.19700000      50.81800000 
H      51.47800000      46.10100000      52.62700000 
H      50.05300000      45.22400000      53.08200000 
H      53.28800000      42.86700000      53.55200000 
H      52.99500000      43.51600000      51.99800000 
N      51.82900000      46.04200000      49.45300000 
C      52.79100000      46.29900000      48.41600000 
C      53.15600000      47.78300000      48.43300000 
O      52.66800000      48.60800000      47.67200000 
C      52.28000000      45.82400000      47.06300000 
C      52.27700000      44.32300000      47.05100000 
C      51.40800000      43.66300000      46.00200000 
N      51.99600000      43.78300000      44.66400000 
C      51.56400000      43.08900000      43.64400000 
N      52.22000000      43.09300000      42.49300000 
N      50.46800000      42.35600000      43.76400000 
H      51.03100000      46.65500000      49.52000000 
H      53.68400000      45.75800000      48.65600000 
H      51.26900000      46.21500000      46.91900000 
H      52.90000000      46.22800000      46.27200000 
H      53.30500000      43.95100000      46.97000000 
H      51.90500000      43.95100000      48.00100000 
H      51.35300000      42.60900000      46.22300000 
H      50.44700000      44.07000000      46.01700000 
H      52.79000000      44.38000000      44.54300000 
H      53.08100000      43.57000000      42.39500000 
H      51.87400000      42.58300000      41.70100000 
H      49.91300000      42.38700000      44.57900000 
H      50.16700000      41.76000000      43.03200000 
N      54.06400000      48.11300000      49.35400000 
C      54.56300000      49.46800000      49.49800000 
C      55.16400000      49.96300000      48.19500000 
O      55.73700000      49.19600000      47.39500000 
C      55.66700000      49.48000000      50.54100000 
C      55.14900000      49.29500000      51.91600000 
C      54.65300000      50.37900000      52.61900000 
C      55.14600000      48.05300000      52.53100000 
C      54.17100000      50.25000000      53.90700000 
C      54.65400000      47.90100000      53.82700000 
C      54.16900000      49.00000000      54.49900000 
H      54.44000000      47.40900000      49.94900000 
H      53.77700000      50.11700000      49.77400000 
H      56.39000000      48.69400000      50.28800000 
H      56.17400000      50.42900000      50.46500000 
H      54.66700000      51.35700000      52.16000000 
H      55.54100000      47.20700000      52.01000000 
H      53.80800000      51.09600000      54.42900000 
H      54.66800000      46.94200000      54.28400000 
H      53.83600000      48.89800000      55.50900000 
N      55.12200000      51.25500000      48.07300000 
C      55.76500000      52.00300000      47.00700000 
C      56.43800000      53.19700000      47.62600000 
O      55.87400000      53.80700000      48.53600000 
C      54.72000000      52.53100000      46.02300000 
C      54.04500000      51.36500000      45.32100000 
C      55.32200000      53.49300000      45.01700000 
C      52.73700000      51.76400000      44.66000000 
H      54.65700000      51.82100000      48.75100000 
H      56.47100000      51.36600000      46.51400000 
H      53.97800000      53.05100000      46.61400000 
H      54.71900000      50.94200000      44.59300000 
H      53.83200000      50.58600000      46.05000000 
H      54.60100000      53.74700000      44.25600000 
H      55.63100000      54.41600000      45.48100000 
H      56.18600000      53.05900000      44.53300000 
H      52.25000000      50.90600000      44.21100000 
H      52.05900000      52.18500000      45.38500000 
H      52.89000000      52.49400000      43.88500000 
N      57.56700000      53.64000000      47.08000000 
C      57.93100000      55.02300000      47.21800000 
C      58.81400000      55.38600000      46.07300000 
O      59.43400000      54.52700000      45.42500000 
C      58.64900000      55.35400000      48.54300000 
C      60.08800000      54.92600000      48.64300000 
C      60.95000000      56.01400000      49.26900000 
C      61.10800000      57.18000000      48.33400000 
N      61.84600000      58.28900000      48.99400000 
H      58.01700000      53.11800000      46.35600000 
H      57.04100000      55.60600000      47.18000000 
H      58.56800000      56.42400000      48.66200000 
H      58.05400000      54.91500000      49.33300000 
H      60.17600000      54.01000000      49.22300000 
H      60.50100000      54.68600000      47.65800000 
H      60.48000000      56.34500000      50.19300000 
H      61.93500000      55.61800000      49.52700000 
H      61.67700000      56.90900000      47.45800000 
H      60.16200000      57.58900000      48.02800000 
H      61.83800000      59.10400000      48.41400000 
H      61.40600000      58.52700000      49.87900000 
H      62.79300000      58.01200000      49.20000000 
N      54.02800000      60.63200000      49.98000000 
C      54.15300000      59.23900000      50.24600000 
C      52.84900000      58.61600000      50.68800000 
O      52.04800000      59.23200000      51.42400000 
C      55.22300000      58.95300000      51.31200000 
C      54.92500000      59.57800000      52.66000000 
O      54.71000000      60.84900000      52.66100000 
O      54.93800000      58.84400000      53.65900000 
H      54.08100000      61.23100000      50.75900000 
H      54.46700000      58.74200000      49.33800000 
H      55.31200000      57.87900000      51.44600000 
H      56.16400000      59.33600000      50.95100000 
N      52.65400000      57.37700000      50.29800000 
C      51.49300000      56.56500000      50.62100000 
C      51.89100000      55.12500000      50.33400000 
O      53.07200000      54.84300000      50.07700000 
C      50.25300000      57.01400000      49.87600000 
C      50.46600000      57.03500000      48.37300000 
C      50.72100000      58.42100000      47.78300000 
O      50.38500000      59.43800000      48.41200000 
O      51.23500000      58.42600000      46.63100000 
H      53.36800000      56.90300000      49.78400000 
H      51.31300000      56.62900000      51.69200000 
H      49.44300000      56.33900000      50.13200000 
H      49.98400000      57.98200000      50.22100000 
H      51.27300000      56.40500000      48.06900000 
H      49.57300000      56.67600000      47.86900000 
N      50.94000000      54.20300000      50.34900000 
C      51.22300000      52.80400000      50.11100000 
C      49.92500000      52.12200000      49.73100000 
O      48.86300000      52.71100000      49.92100000 
C      51.83700000      52.12200000      51.33300000 
C      50.87700000      52.00500000      52.48100000 
C      50.58100000      53.09300000      53.27100000 
C      50.25000000      50.80000000      52.75700000 
C      49.68700000      53.01100000      54.30900000 
C      49.34900000      50.68700000      53.81600000 
C      49.07100000      51.82500000      54.59400000 
H      49.99100000      54.42200000      50.53300000 
H      51.92800000      52.72300000      49.28800000 
H      52.15300000      51.11600000      51.03800000 
H      52.69900000      52.66300000      51.62100000 
H      51.08000000      54.04300000      53.06500000 
H      50.45500000      49.95100000      52.16100000 
H      49.47000000      53.88000000      54.90800000 
H      48.89100000      49.76800000      54.03000000 
H      48.38300000      51.73100000      55.40400000 
N      50.00700000      50.88100000      49.26200000 
C      48.81900000      50.11600000      48.97000000 
C      48.93100000      48.74100000      49.55100000 
O      50.03600000      48.23900000      49.80100000 
C      48.53100000      50.02100000      47.46100000 
C      48.66500000      51.40300000      46.82400000 
C      49.48300000      49.04500000      46.78000000 
H      50.89100000      50.44400000      49.12000000 
H      47.98800000      50.64500000      49.43000000 
H      47.53700000      49.67500000      47.36400000 
H      48.22100000      51.38000000      45.84000000 
H      48.17000000      52.13900000      47.42300000 
H      49.70600000      51.66400000      46.73000000 
H      49.26800000      49.01700000      45.71400000 
H      50.50700000      49.33300000      46.91300000 
H      49.36700000      48.03100000      47.16500000 
N      47.78200000      48.11000000      49.69400000 
C      47.72600000      46.70800000      50.09000000 
C      46.75400000      45.99600000      49.25300000 
O      45.90900000      46.60100000      48.55500000 
C      47.42200000      46.54900000      51.59000000 
C      48.31100000      47.45800000      52.40800000 
C      45.96700000      46.79200000      51.87300000 
H      46.93400000      48.53700000      49.47500000 
H      48.70800000      46.30800000      49.89500000 
H      47.66300000      45.51300000      51.83900000 
H      48.20200000      47.24000000      53.46200000 
H      49.33300000      47.38000000      52.12600000 
H      48.00200000      48.49700000      52.24800000 
H      45.77100000      46.75600000      52.93700000 
H      45.66400000      47.77600000      51.51400000 
H      45.32300000      46.05600000      51.39100000 
N      43.43200000      50.82100000      48.55300000 
C      44.45200000      51.65300000      49.13700000 
C      43.93400000      52.39200000      50.33400000 
O      42.71100000      52.68600000      50.45200000 
C      44.92600000      52.61800000      48.04600000 
O      45.56800000      51.76900000      47.10800000 
C      45.86100000      53.69900000      48.54200000 
H      42.95900000      51.14200000      47.76500000 
H      45.28100000      51.05800000      49.43000000 
H      44.05600000      53.07700000      47.59100000 
H      46.11000000      52.26300000      46.48100000 
H      46.23800000      54.23900000      47.70800000 
H      45.34700000      54.39200000      49.18700000 
H      46.69000000      53.27300000      49.08500000 
N      44.83700000      52.75200000      51.21900000 
C      44.56800000      53.59700000      52.36400000 
C      45.59400000      54.70100000      52.35900000 
O      46.78200000      54.43500000      52.14400000 
C      44.71400000      52.81500000      53.67000000 
H      45.78800000      52.47200000      51.09700000 
H      43.58600000      53.98400000      52.26300000 
H      44.49000000      53.40700000      54.49700000 
H      44.04100000      51.95700000      53.63100000 
H      45.73500000      52.43600000      53.73600000 
N      45.18900000      55.93000000      52.61700000 
C      46.12700000      57.02500000      52.64900000 
C      46.88200000      57.02800000      53.95300000 
O      48.12800000      56.97900000      53.97700000 
C      45.41600000      58.36500000      52.41100000 
C      46.42100000      59.46300000      52.32600000 
C      47.35100000      59.47500000      51.27100000 
C      46.49300000      60.46200000      53.27800000 
C      48.30400000      60.44100000      51.18700000 
C      47.47700000      61.45600000      53.17400000 
C      48.36100000      61.42500000      52.14100000 
O      49.35400000      62.39900000      52.02500000 
H      44.21200000      56.12600000      52.75800000 
H      46.85300000      56.86500000      51.88100000 
H      44.86500000      58.26900000      51.50400000 
H      44.71800000      58.55200000      53.21300000 
H      47.29400000      58.69800000      50.52700000 
H      45.80800000      60.47800000      54.08000000 
H      49.02600000      60.42800000      50.37400000 
H      47.52000000      62.23200000      53.92500000 
H      49.32800000      63.04700000      52.67400000 
N      46.15100000      57.07300000      55.06600000 
C      46.75800000      57.04700000      56.37300000 
C      45.84200000      56.36000000      57.34000000 
O      45.88700000      56.59000000      58.56800000 
C      47.18000000      58.41900000      56.85500000 
C      48.21700000      58.35900000      57.95400000 
C      48.37200000      59.72700000      58.60300000 
N      49.50700000      59.67300000      59.52700000 
C      49.82600000      60.66900000      60.32600000 
N      49.07000000      61.73000000      60.41900000 
N      50.93600000      60.59800000      61.04700000 
H      45.18400000      57.24500000      54.99700000 
H      47.64800000      56.42500000      56.29600000 
H      47.56200000      58.95700000      56.01400000 
H      46.29100000      58.95100000      57.20200000 
H      47.93900000      57.64700000      58.69600000 
H      49.16700000      58.05600000      57.52500000 
H      48.53700000      60.47700000      57.86900000 
H      47.46700000      59.95500000      59.14500000 
H      50.07200000      58.88700000      59.50100000 
H      48.20500000      61.81200000      59.91400000 
H      49.30600000      62.50100000      61.02000000 
H      51.55000000      59.81900000      60.97100000 
H      51.20400000      61.32900000      61.66200000 
N      44.95900000      55.47800000      56.85100000 
C      44.09900000      54.75100000      57.70200000 
C      44.80700000      53.54700000      58.27600000 
O      45.98100000      53.24500000      57.95400000 
C      42.82600000      54.33900000      57.00300000 
C      41.63900000      54.43700000      57.90000000 
O      41.40500000      55.48900000      58.51200000 
N      40.89200000      53.34400000      58.06300000 
H      45.00900000      55.26000000      55.87700000 
H      43.84500000      55.39300000      58.53200000 
H      42.64300000      55.04200000      56.18400000 
H      42.90600000      53.35200000      56.56200000 
H      40.09400000      53.37400000      58.64500000 
H      41.11300000      52.49900000      57.59800000 
N      44.08300000      52.79100000      59.10600000 
C      44.52100000      51.52600000      59.62600000 
C      44.83400000      51.59300000      61.09000000 
O      45.40500000      52.58100000      61.60100000 
H      43.16200000      53.08900000      59.35700000 
H      43.78200000      50.78100000      59.43100000 
H      45.43000000      51.26100000      59.11100000 
N      44.49900000      50.52300000      61.78100000 
C      44.81100000      50.38900000      63.18200000 
C      44.74800000      48.96000000      63.57900000 
O      44.42500000      48.04300000      62.82300000 
C      43.90200000      51.27300000      64.02700000 
C      42.46300000      50.87900000      64.01500000 
O      42.18900000      49.66400000      63.72700000 
O      41.61200000      51.76300000      64.31200000 
H      44.03000000      49.76600000      61.36000000 
H      45.83200000      50.71100000      63.33500000 
H      44.23900000      51.28500000      65.06000000 
H      43.98600000      52.29100000      63.66600000 
N      57.71300000      48.15100000      66.71400000 
C      57.77400000      48.13400000      65.27200000 
C      58.86700000      49.00300000      64.76900000 
O      59.39300000      49.91200000      65.44900000 
C      56.43200000      48.52700000      64.65300000 
C      55.99800000      49.91500000      64.93000000 
C      56.15900000      50.98400000      64.10900000 
C      55.21800000      50.39300000      66.07700000 
N      55.55500000      52.09700000      64.64100000 
C      54.96100000      51.77000000      65.85300000 
C      54.75600000      49.81200000      67.24000000 
C      54.24600000      52.52300000      66.74400000 
C      54.03800000      50.57400000      68.14400000 
C      53.78800000      51.92900000      67.88500000 
H      57.83100000      49.02100000      67.19500000 
H      57.99400000      47.12500000      64.98600000 
H      56.47600000      48.35100000      63.60800000 
H      55.71000000      47.84700000      65.06000000 
H      56.66900000      51.03600000      63.17300000 
H      55.51600000      52.98400000      64.22700000 
H      54.95000000      48.77300000      67.45100000 
H      54.05000000      53.57500000      66.55300000 
H      53.68600000      50.13500000      69.04500000 
H      53.22100000      52.48800000      68.59700000 
N      59.20400000      48.76600000      63.48800000 
C      60.16500000      49.51500000      62.75600000 
C      59.45100000      50.57400000      61.93200000 
O      58.22800000      50.54000000      61.72300000 
C      60.87000000      48.62200000      61.74200000 
C      61.48800000      47.39500000      62.39600000 
O      61.44500000      46.31900000      61.73400000 
O      62.01800000      47.51200000      63.53800000 
H      58.69500000      48.05900000      63.00500000 
H      60.86500000      49.96300000      63.41200000 
H      60.19400000      48.30000000      60.98300000 
H      61.67900000      49.16600000      61.28800000 
N      60.24600000      51.49200000      61.37300000 
C      59.74400000      52.27600000      60.25800000 
C      60.94300000      52.63400000      59.43800000 
O      62.07200000      52.75100000      59.96300000 
C      58.97000000      53.51000000      60.68400000 
C      59.82900000      54.46100000      61.46100000 
C      59.11500000      55.65900000      62.03400000 
O      59.60500000      56.21100000      63.02900000 
O      58.05700000      56.04200000      61.42700000 
H      61.18100000      51.53500000      61.56000000 
H      59.09600000      51.65600000      59.66800000 
H      58.57400000      54.00300000      59.79000000 
H      58.13000000      53.19300000      61.26700000 
H      60.32500000      53.95300000      62.25600000 
H      60.62200000      54.87400000      60.82600000 
N      60.71900000      52.81400000      58.16000000 
C      61.68500000      53.27400000      57.20300000 
C      61.55700000      54.76300000      57.03900000 
O      60.45900000      55.29900000      56.89700000 
C      61.39600000      52.63900000      55.85900000 
C      61.64500000      51.14900000      55.86200000 
C      60.85200000      50.46300000      54.75200000 
C      63.12300000      50.85900000      55.69700000 
H      59.78600000      52.67100000      57.81700000 
H      62.66200000      53.02000000      57.55500000 
H      60.36900000      52.85800000      55.60800000 
H      62.01200000      53.10300000      55.10000000 
H      61.30200000      50.74600000      56.81600000 
H      60.99800000      49.38700000      54.78600000 
H      59.78800000      50.65000000      54.87100000 
H      61.15800000      50.81800000      53.79200000 
H      63.33100000      49.80100000      55.78000000 
H      63.44800000      51.20000000      54.72800000 
H      63.70400000      51.37100000      56.44800000 
N      46.36500000      50.71200000      68.47900000 
C      47.57200000      51.28400000      68.00100000 
C      47.33300000      51.58700000      66.51900000 
O      47.44900000      50.74400000      65.68000000 
C      48.81100000      50.40800000      68.21100000 
C      48.90900000      50.01100000      69.67600000 
C      50.03700000      51.21700000      67.79800000 
C      48.21700000      48.71600000      70.04400000 
H      45.96900000      49.90600000      67.98900000 
H      47.73300000      52.19300000      68.54200000 
H      48.71400000      49.52900000      67.58500000 
H      49.97600000      49.91600000      69.91600000 
H      48.54900000      50.82800000      70.28200000 
H      50.91600000      50.61100000      67.86700000 
H      49.95500000      51.58100000      66.77700000 
H      50.14600000      52.05200000      68.44600000 
H      48.30000000      48.54900000      71.12300000 
H      47.16500000      48.75400000      69.80100000 
H      48.65800000      47.88500000      69.54400000 
N      46.91200000      52.81000000      66.22300000 
C      46.71100000      53.18400000      64.82700000 
C      48.00200000      53.30100000      64.11000000 
O      49.08700000      53.48700000      64.68500000 
C      46.02500000      54.55900000      64.89900000 
C      45.49900000      54.63600000      66.32900000 
C      46.53100000      53.89500000      67.14000000 
H      46.08700000      52.47100000      64.35200000 
H      46.75800000      55.33900000      64.73700000 
H      45.25900000      54.64500000      64.15300000 
H      45.36000000      55.66200000      66.66000000 
H      44.55600000      54.11900000      66.40100000 
H      47.40600000      54.53100000      67.32700000 
H      46.17100000      53.51900000      68.04800000 
N      47.91000000      53.27100000      62.79300000 
C      49.05600000      53.51100000      61.95100000 
C      49.45900000      54.95600000      61.97900000 
O      48.72700000      55.87300000      62.35600000 
C      48.78100000      53.04400000      60.53900000 
C      49.10900000      51.58500000      60.30000000 
C      50.61600000      51.36600000      60.21600000 
C      48.51100000      50.66700000      61.37400000 
H      47.02900000      53.07800000      62.34600000 
H      49.88400000      52.95100000      62.36900000 
H      47.74300000      53.23900000      60.31000000 
H      49.37600000      53.63300000      59.84800000 
H      48.65900000      51.32200000      59.36200000 
H      50.83500000      50.31400000      60.04500000 
H      51.02200000      51.92600000      59.37300000 
H      51.10400000      51.67300000      61.09400000 
H      48.68800000      49.63100000      61.10400000 
H      48.97300000      50.84600000      62.33000000 
H      47.45800000      50.81900000      61.47400000 
N      50.70400000      55.16700000      61.51300000 
C      51.37100000      56.44500000      61.52000000 
C      52.20100000      56.52300000      60.25300000 
O      53.41600000      56.77300000      60.29700000 
C      52.18100000      56.64900000      62.76600000 
C      52.99900000      55.41400000      63.10600000 
C      54.21400000      55.68900000      63.99000000 
C      55.50400000      55.58200000      63.20600000 
N      55.60300000      56.57900000      62.12500000 
H      51.25600000      54.35900000      61.31000000 
H      50.60000000      57.20100000      61.43600000 
H      52.83400000      57.50200000      62.61900000 
H      51.51700000      56.89100000      63.58200000 
H      52.33100000      54.69600000      63.61700000 
H      53.31300000      54.92500000      62.19600000 
H      54.14500000      56.67200000      64.42500000 
H      54.26500000      54.98100000      64.78900000 
H      56.36200000      55.72200000      63.84400000 
H      55.59000000      54.60700000      62.72900000 
H      56.54900000      56.47000000      61.70800000 
H      54.87600000      56.47100000      61.42000000 
H      55.52800000      57.50900000      62.48600000 
N      51.55600000      56.33100000      59.13300000 
C      52.21800000      56.46200000      57.85100000 
C      52.90800000      55.18700000      57.44900000 
O      52.48400000      54.07200000      57.74500000 
H      50.60200000      56.06800000      59.14600000 
H      51.46800000      56.66700000      57.10300000 
H      52.90400000      57.26600000      57.88200000 
N      54.01100000      55.36100000      56.68900000 
C      54.73900000      54.22200000      56.15900000 
C      55.58000000      53.59200000      57.23700000 
O      56.51100000      54.19800000      57.75400000 
C      55.60300000      54.71000000      54.99200000 
C      54.77200000      54.78700000      53.73700000 
O      54.28100000      53.78400000      53.28900000 
N      54.63300000      55.98300000      53.17400000 
H      54.37500000      56.25700000      56.54500000 
H      54.02500000      53.50600000      55.78300000 
H      56.06300000      55.64300000      55.24700000 
H      56.37800000      53.98400000      54.81100000 
H      54.10700000      56.02100000      52.31700000 
H      54.95000000      56.84800000      53.54100000 
N      55.20000000      52.36800000      57.55400000 
C      55.72800000      51.58200000      58.65900000 
C      55.99400000      50.20500000      58.10600000 
O      55.13300000      49.66500000      57.38100000 
C      54.67200000      51.49000000      59.75700000 
C      54.97800000      50.37400000      60.73600000 
C      54.55500000      52.82500000      60.47400000 
H      54.42500000      51.96200000      57.10700000 
H      56.63700000      52.03100000      59.02700000 
H      53.73300000      51.28200000      59.26300000 
H      54.26000000      50.39300000      61.55200000 
H      54.91200000      49.41100000      60.26100000 
H      55.96700000      50.48600000      61.15000000 
H      53.73200000      52.81600000      61.15300000 
H      55.45900000      53.03600000      61.03100000 
H      54.39500000      53.64100000      59.76900000 
N      57.12500000      49.60700000      58.43300000 
C      57.47800000      48.28000000      57.96600000 
C      57.60800000      47.39000000      59.17100000 
O      58.44700000      47.70000000      60.04700000 
C      58.81900000      48.28600000      57.24100000 
C      59.27000000      46.90800000      56.82200000 
C      58.90400000      46.52300000      55.37700000 
N      60.13800000      46.33700000      54.60600000 
C      60.45700000      45.28000000      53.89200000 
N      61.71700000      45.15300000      53.46800000 
N      59.57100000      44.35000000      53.57500000 
H      57.74900000      50.02600000      59.08900000 
H      56.68800000      47.94000000      57.31800000 
H      58.74100000      48.95100000      56.38500000 
H      59.54100000      48.72800000      57.92300000 
H      60.34500000      46.83300000      56.92300000 
H      58.86200000      46.15600000      57.48400000 
H      58.34600000      45.61000000      55.36600000 
H      58.30700000      47.29500000      54.91500000 
H      60.81900000      47.03000000      54.71800000 
H      62.40400000      45.76300000      53.75900000 
H      61.96800000      44.39800000      52.86400000 
H      58.60100000      44.45600000      53.76600000 
H      59.85100000      43.52600000      53.10300000 
N      56.87800000      46.29300000      59.23000000 
C      56.88100000      45.37400000      60.33200000 
C      56.15600000      45.91200000      61.52600000 
O      56.01800000      47.14100000      61.72100000 
C      58.29200000      44.96600000      60.79300000 
C      59.15300000      44.50400000      59.65800000 
O      58.68500000      43.78100000      58.77800000 
N      60.38500000      44.89700000      59.69200000 
H      56.23200000      46.11500000      58.49800000 
H      56.38300000      44.47500000      59.98000000 
H      58.75100000      45.77700000      61.31900000 
H      58.17100000      44.13500000      61.48200000 
H      61.02500000      44.59700000      59.00300000 
H      60.75200000      45.52200000      60.44100000 
N      50.64800000      41.54800000      58.22000000 
C      50.26700000      42.40200000      57.09300000 
C      49.51900000      43.63100000      57.51100000 
O      48.67300000      43.60500000      58.44500000 
C      49.39600000      41.48100000      56.23700000 
C      49.96800000      40.11100000      56.53400000 
C      50.24800000      40.16400000      58.02000000 
H      51.15400000      42.70600000      56.56500000 
H      48.38900000      41.53600000      56.55200000 
H      49.46100000      41.76000000      55.19300000 
H      49.29400000      39.30800000      56.26900000 
H      50.90400000      39.95900000      55.99000000 
H      49.36400000      39.94600000      58.59200000 
H      51.02800000      39.48400000      58.30600000 
N      49.77300000      44.69400000      56.79200000 
C      49.24300000      46.02300000      57.05800000 
C      47.84800000      46.14400000      56.51000000 
O      47.52600000      46.93400000      55.59200000 
C      50.19500000      47.08600000      56.51500000 
C      50.37500000      48.21600000      57.50200000 
C      51.44700000      49.17100000      57.00800000 
C      49.09100000      48.95400000      57.75100000 
H      50.42100000      44.61600000      56.02600000 
H      49.16100000      46.12700000      58.12300000 
H      51.13200000      46.63500000      56.29200000 
H      49.79400000      47.48400000      55.59700000 
H      50.72000000      47.79000000      58.43700000 
H      51.52300000      50.05000000      57.64000000 
H      52.42000000      48.68800000      56.99900000 
H      51.23100000      49.49900000      56.00000000 
H      49.22900000      49.73300000      58.47100000 
H      48.71700000      49.38700000      56.84000000 
H      48.31200000      48.29000000      58.14000000 
N      46.94300000      45.34600000      57.07900000 
C      45.57200000      45.34300000      56.70300000 
C      44.90600000      46.61800000      57.19200000 
O      45.34600000      47.33900000      58.03800000 
C      44.90900000      44.10000000      57.29600000 
C      44.85000000      44.20700000      58.80500000 
C      43.54100000      43.85000000      56.68900000 
H      47.27300000      44.72600000      57.79300000 
H      45.50200000      45.31100000      55.63000000 
H      45.55800000      43.28400000      57.02000000 
H      44.50000000      43.27400000      59.23900000 
H      45.81200000      44.41000000      59.24000000 
H      44.16000000      44.98300000      59.10600000 
H      43.25800000      42.80900000      56.82600000 
H      42.78100000      44.45000000      57.16400000 
H      43.52500000      44.05300000      55.63900000 
N      43.71700000      46.84200000      56.59600000 
C      42.87200000      47.96800000      56.90500000 
C      42.45700000      48.03000000      58.35600000 
O      42.52300000      49.07700000      58.97300000 
C      41.65100000      47.80600000      56.01500000 
C      40.50700000      48.75300000      56.27600000 
C      40.73100000      50.11900000      55.69900000 
N      40.93800000      50.00000000      54.26200000 
C      41.26300000      51.00700000      53.50200000 
N      41.37800000      52.20600000      54.00900000 
N      41.48300000      50.81400000      52.20400000 
H      43.40400000      46.24400000      55.87300000 
H      43.39500000      48.89600000      56.71700000 
H      41.98500000      47.88400000      55.01100000 
H      41.30600000      46.79900000      56.17300000 
H      39.61000000      48.34900000      55.86000000 
H      40.33300000      48.86500000      57.35100000 
H      39.89600000      50.76400000      55.89000000 
H      41.62300000      50.57700000      56.13400000 
H      40.79400000      49.09200000      53.83600000 
H      41.20600000      52.38400000      54.95900000 
H      41.61500000      53.00000000      53.43100000 
H      41.38700000      49.90200000      51.81700000 
H      41.79100000      51.55600000      51.59900000 
H      50.40339021      42.92748712      51.85766163 
H      58.91996544      56.34427440      45.80751648 
H      54.68566220      60.89173273      49.42320619 
H      46.75310864      44.99631194      49.22804045 
H      43.79344184      50.03747071      48.29718435 
H      44.97668459      48.69038879      64.51442138 
H      56.90837835      47.85171358      66.98420666 
H      62.37465023      55.33869373      57.04398310 
H      46.48216986      50.42602703      69.32427551 
H      55.76398696      45.28364811      62.19793726 
H      51.54384558      41.46527289      58.24483779 
H      42.12501104      47.20687613      58.81670644 
