 244 
 
N               164.4058401022       75.7230180541       87.9182392531
C               165.7339291729       75.1540394474       87.8304011642
C               166.0461426234       74.4258128543       89.1424626089
O               165.2329279088       74.3832388859       90.0581238230
C               166.7701805293       76.2172223731       87.4237101918
O               166.9987952652       77.2149792956       88.3818966362
H               164.2881781059       76.6500443004       88.3464038079
H               165.6931535422       74.3852919149       87.0458133580
H               167.7044892553       75.7201445935       87.1303618230
H               166.3684348355       76.7461403333       86.5567706581
H               167.4012264620       76.8532612868       89.1830057435
N               167.2371681882       73.8038900956       89.2531439760
C               167.4350755721       72.9334289684       90.3964928937
C               167.3871562305       73.7106870975       91.7178873259
O               166.8320828149       73.2318313644       92.6938355361
C               168.7099351731       72.1104520395       90.2541393297
C               168.4791838020       70.9998629537       89.2270720688
C               169.7618212369       70.2598412134       88.9052475704
O               170.4588453249       70.5782832521       87.9505483383
N               170.0659610124       69.2491096900       89.7153621467
H               167.9160441819       73.7936528247       88.5083086470
H               166.5746151710       72.2499193001       90.4585965786
H               169.5391796660       72.7528905624       89.9483199042
H               168.9649364215       71.6828457303       91.2258997250
H               167.7373653499       70.3005908492       89.6100432044
H               168.1042614916       71.4235640473       88.2951528829
H               169.5581229575       69.0616946281       90.5678326876
H               170.8496197872       68.6457736621       89.4997454215
N               166.4184559224       67.4756065391       92.2462635251
C               167.2218794034       66.7090700050       91.3174683518
C               168.6874314343       66.9207117555       91.7213563020
O               169.0581269439       68.0072334601       92.1615834637
C               167.0263628881       67.2056380213       89.8769174056
C               165.5673401409       67.1471672429       89.4334431613
C               165.3347414604       67.9714679447       88.1784713543
O               166.1725591507       68.7241788180       87.7017792883
N               164.1267549021       67.8019984571       87.6224193471
H               166.8401392191       68.3418726916       92.5533197919
H               166.9124681163       65.6653089785       91.4173243587
H               167.3658092028       68.2409610971       89.8186040015
H               167.6538982819       66.6250189404       89.2007900053
H               165.2559274878       66.1174952381       89.2616466020
H               164.9312212688       67.5647485659       90.2185907328
H               163.4133675623       67.2616209600       88.0814851099
H               163.8743085212       68.3657706687       86.8262844429
N               172.5906834949       67.6113705817       91.7630686855
C               173.6701847229       68.2664018655       91.0588240476
C               174.6296544664       67.1999166041       90.5113383978
O               174.8167313853       66.1391066088       91.0911971961
C               174.4823707155       69.1652142525       92.0041978967
C               173.8736602857       70.5291834912       92.1666482098
C               172.9252216779       70.7870817248       93.1501820096
C               174.2545102607       71.5656385258       91.3250753437
C               172.3760056002       72.0467780030       93.2973811490
C               173.7334731563       72.8358649643       91.4774936728
C               172.7883264394       73.0859517003       92.4661668584
O               172.2674344237       74.3250035926       92.6566254426
H               172.6671347753       67.5688400131       92.7742961491
H               173.2681070476       68.8538130096       90.2248006981
H               174.5471556488       68.6667578444       92.9727836578
H               175.4888957301       69.2640295858       91.5894603909
H               172.6183376919       69.9874765923       93.8084768977
H               174.9763973642       71.3854985258       90.5423106621
H               171.6082492049       72.2493686513       94.0301529481
H               174.0613892479       73.6350274121       90.8256729506
H               172.6084717389       74.9222079881       91.9757704012
N               175.2545632857       67.5427562284       89.3793237991
C               176.4434949131       66.8330217801       88.9410668574
C               177.5861712733       67.3087818240       89.8518625542
O               177.6634324371       68.4825713558       90.2024436029
C               176.6958916785       67.1368911992       87.4656432376
C               177.9049408661       66.3979849069       86.8961050231
C               178.0645553687       66.7127270984       85.4077120001
C               179.2613553930       65.9721365942       84.8203897243
N               179.4104078619       66.2935671674       83.3738209947
H               175.1246374484       68.4720497023       88.9933173911
H               176.2675382887       65.7647599364       89.1028290444
H               175.7937483003       66.8612777971       86.9173519851
H               176.8201527663       68.2170825250       87.3649353059
H               178.8043478984       66.6931040117       87.4393564647
H               177.7637131776       65.3251510109       87.0304758766
H               177.1472411585       66.4212182926       84.8945985384
H               178.1878577694       67.7902791586       85.2918558663
H               180.1711543464       66.2616684848       85.3474605236
H               179.1203488268       64.8968715616       84.9323200278
H               180.2116280828       65.7883464939       82.9682431700
H               178.5532118534       66.0291431237       82.8645556777
H               179.5584359909       67.3066157551       83.2511010900
N               182.8442326261       71.3011113451       93.3490013725
C               182.0720815927       72.1073697034       92.4280045914
C               180.8399643871       71.3061664772       91.9956218686
O               180.9268964288       70.1143141231       91.7125824200
C               182.8624561024       72.4819950908       91.1628098960
O               183.9024761917       73.3796332317       91.4867206115
H               182.8932790977       70.3045289860       93.1496999554
H               181.7735231439       73.0235629916       92.9475690520
H               183.2687253217       71.5697007393       90.7106746709
H               182.1617493107       72.9510508861       90.4597341331
H               184.3208868924       73.6428388717       90.6564947568
N               179.7156165734       72.0087434819       91.9104212555
C               178.4422189094       71.4090870449       91.5734554037
C               177.8809761762       72.1074716591       90.3330742310
O               177.8650601419       73.3320147341       90.2505695924
C               177.4712276848       71.5817644327       92.7564676646
C               178.0549095638       70.9866026331       94.0049718039
C               178.7743184801       71.7709875131       94.8964168759
C               177.9178371385       69.6297175100       94.2728919983
C               179.3233304892       71.2178417999       96.0379447278
C               178.4695765773       69.0637781813       95.4058054814
C               179.1740922409       69.8623421099       96.3028588371
O               179.6965488318       69.2882192391       97.4206715815
H               179.6966491713       72.9827355360       92.2005071719
H               178.6210985021       70.3507667258       91.3671064231
H               177.2951628017       72.6488720754       92.8936356917
H               176.5243043740       71.1049255062       92.5085975299
H               178.9114360813       72.8248615220       94.7033079781
H               177.3598636701       69.0150755124       93.5822156413
H               179.8670422488       71.8490632029       96.7254226965
H               178.3536682514       68.0122680735       95.6200472363
H               180.0549332095       69.9753103806       97.9989721498
N               177.4193761415       71.2978310540       89.3800641620
C               176.9214917119       71.7819441613       88.1101109499
C               175.4705345137       71.3397666148       87.9245636302
O               175.1337111832       70.1749952791       88.1174094650
C               177.7773759409       71.2372671777       86.9514410911
O               179.1190156692       71.5716994102       87.2343666998
C               177.3064876681       71.8161433634       85.6192728054
H               177.4494154044       70.2933124206       89.5242171929
H               176.9834736579       72.8719982815       88.1247504174
H               177.6687895389       70.1402048712       86.9451278936
H               179.6779632282       71.2486900153       86.5142685197
H               177.9208847604       71.4460474608       84.8030169576
H               176.2686697234       71.5524925179       85.4299135469
H               177.3831978063       72.9015506942       85.6420843746
N               174.6244626207       72.3030421069       87.5700764870
C               173.2200464673       72.0520005670       87.3460355996
C               172.9051367405       71.9241457700       85.8526613749
O               173.7548551504       72.0526050099       84.9752077126
C               172.3769905709       73.1442258039       87.9982295109
C               172.6680359719       74.5478692353       87.3919804586
O               172.8095930654       74.6095397153       86.1478114212
O               172.7160875741       75.4990998169       88.1835173847
H               174.9710333665       73.2382058854       87.3878857060
H               172.9864915503       71.0831102248       87.8052096701
H               171.3196217346       72.9268370222       87.8482682437
H               172.5760978000       73.1721986289       89.0700878990
N               171.6183255522       71.6364554001       85.6233900937
C               171.0470782638       71.3617188707       84.3232977052
C               171.3029870937       72.4745829148       83.3074768168
O               171.2082235093       72.2682635412       82.1045034265
C               169.5248751598       71.2634218038       84.4562168836
C               169.0738271049       70.0520241932       85.2756563529
O               169.7697364117       69.0662069361       85.4446971835
N               167.8260108467       70.1743717182       85.7453125664
H               171.0687057995       71.3118056589       86.4131049049
H               171.4418143557       70.4214369203       83.9153839839
H               169.1519328621       72.1889069760       84.8991097911
H               169.1006221698       71.1632755789       83.4544779240
H               167.4022153273       69.4566883179       86.3211551641
H               167.2857535985       70.9984110286       85.5482283503
N               171.5013378200       73.6810329797       83.8408772230
C               171.6683761016       74.8740821868       83.0589491743
C               173.1425568117       75.2151243644       82.7921496246
O               173.4467643029       76.2068450751       82.1437705853
C               170.9918252917       76.0405155368       83.7958809560
C               169.5070740224       75.7423530263       83.9332976871
O               169.0507030150       75.0582645607       84.8380640266
N               168.7404351094       76.2696570792       82.9696817963
H               171.7195353224       73.7904706891       84.8297448960
H               171.1998247799       74.7037670972       82.0805547392
H               171.4373310431       76.1031083477       84.7907110332
H               171.1742239152       76.9639068070       83.2498692762
H               167.7530186418       76.0679327264       82.9527169137
H               169.1411660802       76.7937657624       82.2107056317
N               174.0279526396       74.3445718792       83.2826468807
C               175.4442751028       74.5361319888       83.1457348251
C               176.0852758108       75.3783221772       84.2432634615
O               177.3004002822       75.5427968153       84.2653116724
H               173.7305316826       73.5787864026       83.8794036225
H               175.9411915706       73.5652077945       83.1175307982
H               175.6344462721       75.0621573978       82.2033639618
N               175.2599484824       75.9854648826       85.1061490430
C               175.8531557517       76.8176886005       86.1357260875
C               176.6403440533       75.9197834346       87.0943874197
O               176.2211666593       74.8254097875       87.4533695567
C               174.7817559417       77.6290465625       86.8614777965
C               175.3817798879       78.6178533272       87.8595291730
C               174.2797367882       79.4128501332       88.5601584692
C               174.8718026798       80.3521384532       89.6064477246
N               173.7952598083       81.1251111975       90.2842928877
H               174.3308716745       75.6092936360       85.2832592338
H               176.5592212110       77.4870896441       85.6285599291
H               174.2082736340       78.1636876797       86.1018066178
H               174.1026227492       76.9413862111       87.3713445663
H               175.9672717853       78.0690162321       88.5991008042
H               176.0548717750       79.2962877781       87.3328444581
H               173.7301525415       79.9761504694       87.8062168357
H               173.5939375171       78.7009890717       89.0219448862
H               175.4159784860       79.7723600527       90.3524694869
H               175.5645921898       81.0461436265       89.1297060182
H               174.1902561556       81.7450640919       91.0067646865
H               173.2811969836       81.6995687292       89.5940140604
H               173.1257123554       80.4775131914       90.7262694691
N               177.7929846850       76.4501047415       87.5172759649
C               178.7575273222       75.7732135930       88.3551441577
C               178.9786203932       76.6088720754       89.6160589733
O               179.4003446288       77.7610637041       89.5372609179
C               180.1101997190       75.6802154217       87.6021062237
O               180.5040028617       76.9524020797       87.1497829454
C               180.0063277698       74.7355334418       86.4127142010
H               178.1548393283       77.2816177338       87.0685486726
H               178.3799580960       74.7804902420       88.6036749396
H               180.8575717607       75.2856308736       88.3146488587
H               180.4149552390       77.5779942718       87.8929123544
H               180.9589078148       74.7081147825       85.8931533490
H               179.7492788926       73.7420224258       86.7673183391
H               179.2447134050       75.0835098297       85.7175007106
N               178.6913381201       76.0010846653       90.7647536806
C               178.9188643667       76.6381902762       92.0432335988
C               179.9483479984       75.8479270942       92.8495826532
O               179.8857433650       74.6274906783       92.9988059668
C               177.6033739944       76.8220486068       92.8379798339
C               176.8961910177       75.4815425352       93.0634567128
C               176.7119371818       77.8217382094       92.1029234777
C               175.7148108500       75.5781795861       94.0224756960
H               178.3871902405       75.0312877919       90.7636666909
H               179.3452064294       77.6235830703       91.8238370068
H               177.8892819470       77.2349180195       93.8121573218
H               176.5557715559       75.0817465018       92.1051711708
H               177.6259645983       74.7836046635       93.4757758598
H               175.8564910355       78.0754818271       92.7203103103
H               177.2787450819       78.7234573578       91.8836251116
H               176.3676591235       77.3839857702       91.1674140665
H               175.2951312878       74.5885615097       94.1873477876
H               176.0378093637       75.9866193925       94.9765892095
H               174.9322387629       76.2096385419       93.6147891831
H               164.0615531012       75.8113393320       87.0913983900
H               167.8117844689       74.6137489998       91.7824633251
H               165.6347787230       67.6904168842       91.8593442017
H               169.3450397520       66.1732969626       91.6268976982
H               171.8177453036       68.0403013137       91.5939977554
H               178.2784483077       66.6592392748       90.1662619570
H               183.6961390060       71.5911411882       93.3607576506
H               180.7144156786       76.3220249853       93.2836005088
