216
Properties=species:S:1:pos:R:3 pbc="F F F"
N      18.35800000      27.28600000      88.61100000 
C      18.95900000      27.50400000      89.92600000 
C      17.88700000      28.11200000      90.84900000 
O      17.30900000      29.16300000      90.52500000 
C      20.18900000      28.44000000      89.87000000 
C      20.74600000      28.72900000      91.24200000 
C      21.27600000      27.81400000      88.96800000 
H      17.97300000      28.07900000      88.15000000 
H      19.25500000      26.55300000      90.31500000 
H      19.86600000      29.36200000      89.39500000 
H      21.63900000      29.34500000      91.17000000 
H      20.03200000      29.29000000      91.86700000 
H      21.00400000      27.82900000      91.77500000 
H      22.12600000      28.47400000      88.90300000 
H      21.62400000      26.86700000      89.39800000 
H      20.91900000      27.61800000      87.97000000 
N      17.66100000      27.46000000      91.98700000 
C      16.71900000      27.89600000      93.01100000 
C      17.45400000      27.97800000      94.30800000 
O      18.12300000      26.95500000      94.71900000 
C      15.52600000      26.94700000      93.11200000 
C      14.65400000      26.96500000      91.85900000 
C      13.53500000      25.91800000      91.88700000 
C      12.68300000      26.00800000      90.62700000 
N      11.59000000      24.96200000      90.62000000 
H      18.14700000      26.62800000      92.17600000 
H      16.36800000      28.90100000      92.73200000 
H      15.89800000      25.94700000      93.30400000 
H      14.91500000      27.22800000      93.96600000 
H      14.24800000      27.93300000      91.70300000 
H      15.29200000      26.74200000      90.97400000 
H      13.95000000      24.92000000      91.97300000 
H      12.90900000      26.08300000      92.77000000 
H      12.17200000      26.97300000      90.56500000 
H      13.26000000      25.86200000      89.74700000 
H      11.02000000      25.04600000      89.80900000 
H      11.99500000      24.02700000      90.62500000 
H      11.00100000      25.03900000      91.43900000 
N      17.40500000      29.12200000      95.02100000 
C      18.14100000      29.31300000      96.26700000 
C      17.30100000      30.14700000      97.17500000 
O      16.72100000      31.20200000      96.75200000 
C      19.48800000      29.99400000      95.96100000 
C      20.29600000      30.40300000      97.19600000 
C      21.06100000      29.46200000      97.87900000 
C      20.27200000      31.72500000      97.63400000 
C      21.77700000      29.84000000      98.99600000 
C      21.00000000      32.08300000      98.76300000 
C      21.75100000      31.15500000      99.44700000 
H      16.95400000      29.89900000      94.63500000 
H      18.31200000      28.34700000      96.71400000 
H      20.05700000      29.32200000      95.35800000 
H      19.28400000      30.88500000      95.35800000 
H      21.08800000      28.45700000      97.53600000 
H      19.69800000      32.45500000      97.11800000 
H      22.37100000      29.10500000      99.52300000 
H      20.98000000      33.12400000      99.09900000 
H      22.32100000      31.44200000     100.31700000 
N      17.20300000      29.80400000      98.46300000 
C      16.54200000      30.62800000      99.46500000 
C      17.09700000      30.28400000     100.80300000 
O      17.46500000      29.14900000     101.08700000 
H      17.61600000      28.95100000      98.77200000 
H      16.70200000      31.66500000      99.21700000 
H      15.49000000      30.45000000      99.46700000 
N      17.14300000      31.29400000     101.72100000 
C      17.53400000      31.08600000     103.07900000 
C      17.11300000      32.28400000     103.90000000 
O      17.06000000      33.42600000     103.38900000 
C      19.05900000      30.87900000     103.22800000 
O      19.79700000      31.99800000     102.77400000 
H      16.85000000      32.22400000     101.42200000 
H      17.04500000      30.19800000     103.46400000 
H      19.30400000      30.73300000     104.26400000 
H      19.33400000      29.98500000     102.67400000 
H      19.80600000      32.09400000     101.83200000 
N      16.85400000      32.05900000     105.21000000 
C      16.63100000      33.08400000     106.15600000 
C      17.88500000      33.25600000     107.04700000 
O      18.73900000      32.40300000     107.15800000 
C      15.38600000      32.82500000     106.99900000 
C      15.28600000      31.49100000     107.72700000 
O      14.46000000      31.43400000     108.67700000 
O      16.00200000      30.54400000     107.33300000 
H      16.84400000      31.12300000     105.55800000 
H      16.49500000      34.02000000     105.64200000 
H      15.23300000      33.63200000     107.72300000 
H      14.51500000      32.88500000     106.31400000 
N      16.02600000      38.53500000     108.27000000 
C      16.14200000      38.80700000     106.83200000 
C      15.81900000      37.50400000     106.05700000 
O      16.13400000      36.41100000     106.54500000 
C      17.60900000      39.23700000     106.47300000 
C      18.07800000      40.48500000     107.21300000 
C      18.90300000      40.15900000     108.46700000 
C      18.94800000      41.35500000     106.26500000 
H      16.53700000      37.79000000     108.63500000 
H      15.47200000      39.56800000     106.55200000 
H      18.27600000      38.40800000     106.64500000 
H      17.60700000      39.41400000     105.39000000 
H      17.22800000      41.07900000     107.50200000 
H      19.19700000      41.07500000     108.98500000 
H      18.33500000      39.55500000     109.17200000 
H      19.80100000      39.61800000     108.21000000 
H      19.30100000      42.25900000     106.79400000 
H      19.80900000      40.82100000     105.92400000 
H      18.37400000      41.68800000     105.41300000 
N      15.24100000      37.63800000     104.89300000 
C      14.84200000      36.47300000     104.04900000 
C      15.24900000      36.74600000     102.64700000 
O      14.92500000      37.80500000     102.05600000 
C      13.32000000      36.25700000     104.18000000 
C      12.78300000      34.99600000     103.54700000 
O      13.56600000      33.99700000     103.41100000 
O      11.55300000      34.99900000     103.24300000 
H      14.88600000      38.54100000     104.58800000 
H      15.36000000      35.62500000     104.44600000 
H      13.08700000      36.21400000     105.24100000 
H      12.79900000      37.10700000     103.77700000 
N      16.00800000      35.77900000     102.02400000 
C      16.56200000      35.93000000     100.69100000 
C      15.92300000      34.88200000      99.77500000 
O      15.91400000      33.68300000     100.11900000 
C      18.11400000      35.66400000     100.70700000 
C      18.84000000      36.33200000     101.87800000 
C      18.71700000      36.08100000      99.35000000 
C      18.75900000      37.85600000     101.98000000 
H      16.22500000      34.96800000     102.53600000 
H      16.35200000      36.91200000     100.34000000 
H      18.24700000      34.61600000     100.81400000 
H      18.45000000      35.90500000     102.81700000 
H      19.87000000      36.03400000     101.82400000 
H      19.78800000      35.93300000      99.36700000 
H      18.32000000      35.51900000      98.53100000 
H      18.54000000      37.14900000      99.14200000 
H      19.27600000      38.20900000     102.84900000 
H      19.22000000      38.33100000     101.10700000 
H      17.73300000      38.21200000     102.03600000 
N      15.42800000      35.30000000      98.59900000 
C      14.89700000      34.38500000      97.59800000 
C      15.50900000      34.77400000      96.23700000 
O      15.51200000      35.92600000      95.89000000 
C      13.36500000      34.48200000      97.51500000 
C      12.69100000      33.40800000      96.66700000 
O      13.25300000      32.25600000      96.62300000 
O      11.63300000      33.72000000      96.08900000 
H      15.35200000      36.27400000      98.41200000 
H      15.18000000      33.37900000      97.86400000 
H      12.98400000      34.35400000      98.54200000 
H      13.06900000      35.44200000      97.18200000 
N      16.02000000      33.76500000      95.49900000 
C      16.68700000      34.03400000      94.23900000 
C      16.32400000      32.90700000      93.25900000 
O      16.45600000      31.70500000      93.59900000 
C      18.22200000      34.08100000      94.43300000 
C      18.99000000      34.88600000      93.39300000 
C      19.20300000      36.22000000      93.55700000 
C      19.50400000      34.22900000      92.25800000 
C      19.93500000      36.95600000      92.63600000 
C      20.23200000      34.96700000      91.32000000 
C      20.45600000      36.33500000      91.50000000 
H      16.05300000      32.84100000      95.86000000 
H      16.33500000      34.95800000      93.85200000 
H      18.37500000      34.58200000      95.41100000 
H      18.61200000      33.08600000      94.53700000 
H      18.82100000      36.72500000      94.44100000 
H      19.35700000      33.19300000      92.11100000 
H      20.10400000      38.01000000      92.78600000 
H      20.62900000      34.47500000      90.45800000 
H      21.02000000      36.88600000      90.78700000 
N      14.22000000      38.23400000      92.13700000 
C      14.77000000      38.35700000      93.47300000 
C      13.74600000      39.01500000      94.36000000 
O      13.04400000      39.95000000      93.96700000 
C      16.04100000      39.24200000      93.46100000 
H      13.69600000      38.99500000      91.76100000 
H      15.01600000      37.39200000      93.83600000 
H      16.43500000      39.36100000      94.45600000 
H      16.79200000      38.77500000      92.84000000 
H      15.80900000      40.22500000      93.05200000 
N      13.68600000      38.55000000      95.65800000 
C      12.87900000      39.18600000      96.67700000 
C      13.74200000      39.24200000      97.92100000 
O      14.47400000      38.31700000      98.25800000 
C      11.58600000      38.41000000      96.94300000 
H      14.24000000      37.77700000      95.89200000 
H      12.65300000      40.18500000      96.35400000 
H      11.00600000      38.92700000      97.72700000 
H      10.99100000      38.39100000      96.05500000 
H      11.78400000      37.42000000      97.27300000 
N      13.62400000      40.37800000      98.67400000 
C      14.38200000      40.63900000      99.85700000 
C      13.40200000      41.16400000     100.91100000 
O      12.76900000      42.20100000     100.66000000 
C      15.45900000      41.67300000      99.54100000 
C      16.35300000      42.10600000     100.70900000 
C      17.48700000      41.34400000     101.05300000 
C      16.09400000      43.25600000     101.42900000 
C      18.30400000      41.74000000     102.06300000 
C      16.92700000      43.65500000     102.45100000 
C      18.04700000      42.91000000     102.78000000 
H      13.04600000      41.12200000      98.30900000 
H      14.82600000      39.70900000     100.20100000 
H      16.08600000      41.24800000      98.76300000 
H      14.98700000      42.54800000      99.13000000 
H      17.70100000      40.44400000     100.48900000 
H      15.22600000      43.85500000     101.17100000 
H      19.18500000      41.15500000     102.31900000 
H      16.71200000      44.56900000     102.99400000 
H      18.70500000      43.23200000     103.56400000 
H      18.97876501      26.95871611      88.04749663 
H      18.01856816      34.10120401     107.56448403 
H      16.29761019      39.25609966     108.73501955 
H      15.98108747      33.12921791      92.34629512 
H      14.88802637      38.10536267      91.54776897 
H      13.28593915      40.67300422     101.77439621 
