364
Properties=species:S:1:pos:R:3 pbc="F F F"
N      14.75800000      12.44900000      26.92400000 
C      16.19400000      12.41900000      26.69000000 
C      16.59100000      11.25000000      25.79700000 
O      17.64000000      11.31100000      25.12900000 
C      16.97000000      12.41600000      28.03500000 
C      17.36000000      11.02900000      28.58700000 
C      17.36000000      10.88400000      30.10900000 
N      18.05200000      11.98000000      30.80600000 
C      18.51000000      11.92000000      32.05200000 
N      18.58000000      10.76800000      32.70700000 
N      18.90600000      13.03500000      32.66300000 
H      14.43600000      12.30600000      27.86000000 
H      16.47200000      13.30600000      26.14300000 
H      17.86800000      12.99900000      27.88700000 
H      16.35800000      12.95800000      28.74400000 
H      16.66400000      10.27600000      28.24100000 
H      18.33400000      10.75900000      28.19500000 
H      16.34300000      10.83700000      30.46500000 
H      17.85400000       9.95200000      30.34000000 
H      18.02100000      12.87900000      30.38100000 
H      18.33700000       9.90300000      32.28800000 
H      18.90400000      10.73700000      33.64600000 
H      18.79400000      13.92400000      32.23600000 
H      19.31100000      13.01200000      33.57000000 
N      15.79300000      10.17800000      25.77300000 
C      16.09000000       9.00000000      24.97500000 
C      15.80400000       9.25000000      23.50200000 
O      16.43100000       8.62600000      22.63000000 
C      15.28600000       7.81100000      25.51800000 
C      15.70000000       6.46400000      24.93500000 
O      16.93000000       6.17200000      24.96500000 
O      14.77400000       5.71900000      24.50400000 
H      14.94800000      10.17500000      26.30200000 
H      17.14200000       8.77800000      25.04300000 
H      15.46400000       7.76900000      26.58800000 
H      14.23000000       7.96700000      25.36100000 
N      14.88000000      10.16500000      23.18000000 
C      14.68000000      10.57200000      21.80100000 
C      15.85600000      11.42000000      21.33300000 
O      16.30400000      11.26800000      20.18300000 
C      13.34900000      11.30400000      21.62600000 
H      14.40700000      10.67000000      23.89400000 
H      14.69300000       9.69500000      21.17400000 
H      13.21000000      11.56700000      20.58600000 
H      12.53900000      10.65300000      21.92500000 
H      13.31100000      12.20600000      22.22200000 
N      16.40300000      12.29700000      22.18800000 
C      17.58500000      13.05700000      21.80600000 
C      18.72400000      12.09600000      21.48000000 
O      19.47100000      12.32900000      20.51400000 
C      18.04100000      14.10500000      22.86200000 
C      16.88700000      14.92100000      23.48400000 
C      19.09100000      15.03800000      22.23600000 
C      16.04900000      15.76800000      22.52300000 
H      16.00800000      12.41200000      23.09400000 
H      17.38000000      13.56800000      20.87800000 
H      18.50600000      13.56500000      23.68000000 
H      16.22700000      14.26300000      24.03100000 
H      17.33900000      15.57300000      24.22500000 
H      19.37400000      15.80500000      22.94700000 
H      19.98800000      14.50800000      21.94500000 
H      18.69900000      15.52900000      21.35500000 
H      15.27900000      16.29500000      23.07700000 
H      16.64600000      16.51000000      22.00500000 
H      15.55300000      15.15600000      21.78100000 
N      18.89200000      10.99300000      22.22000000 
C      19.92800000      10.01500000      21.89800000 
C      19.81800000       9.53500000      20.45800000 
O      20.84800000       9.42800000      19.76200000 
C      19.84400000       8.84300000      22.89400000 
C      20.86500000       7.71300000      22.67700000 
C      22.30900000       8.17200000      22.90600000 
C      20.52800000       6.53300000      23.60000000 
H      18.35900000      10.86900000      23.05500000 
H      20.89400000      10.48700000      21.94900000 
H      19.97900000       9.25300000      23.89100000 
H      18.84300000       8.43500000      22.85000000 
H      20.78300000       7.35800000      21.65300000 
H      22.98900000       7.34300000      22.76000000 
H      22.60300000       8.95900000      22.22300000 
H      22.43800000       8.53900000      23.92000000 
H      21.21800000       5.71200000      23.43800000 
H      20.59600000       6.82700000      24.64300000 
H      19.52300000       6.16800000      23.42000000 
N      18.61600000       9.22400000      19.96800000 
C      18.44400000       8.71700000      18.61500000 
C      18.83800000       9.73800000      17.56200000 
O      19.18000000       9.34600000      16.42700000 
C      17.00200000       8.26200000      18.39000000 
C      16.64100000       7.00000000      19.17000000 
O      17.55000000       6.14200000      19.35600000 
O      15.43700000       6.89200000      19.53800000 
H      17.80700000       9.36000000      20.53200000 
H      19.09800000       7.87400000      18.46900000 
H      16.31200000       9.05400000      18.64000000 
H      16.87600000       8.03500000      17.33600000 
N      18.83100000      11.03000000      17.88700000 
C      19.23000000      12.08300000      16.97100000 
C      20.72100000      12.09600000      16.68700000 
O      21.15200000      12.85900000      15.80500000 
C      18.80100000      13.43800000      17.53500000 
H      18.58000000      11.30400000      18.81100000 
H      18.75200000      11.91500000      16.01700000 
H      19.06500000      14.23200000      16.85400000 
H      17.73200000      13.43900000      17.67300000 
H      19.27400000      13.62100000      18.48800000 
N      21.50700000      11.29400000      17.41000000 
C      22.93000000      11.17100000      17.17500000 
C      23.27400000       9.81200000      16.55800000 
O      24.46700000       9.49500000      16.40800000 
C      23.81700000      11.40500000      18.41400000 
C      23.91600000      12.82800000      19.01300000 
C      24.32400000      13.90300000      17.99800000 
C      22.67600000      13.27300000      19.79300000 
H      21.07500000      10.74300000      18.12500000 
H      23.18600000      11.89700000      16.41900000 
H      23.50800000      10.72000000      19.19700000 
H      24.81400000      11.11400000      18.11700000 
H      24.72800000      12.75100000      19.73500000 
H      24.51700000      14.84200000      18.50700000 
H      25.22600000      13.62700000      17.46200000 
H      23.53800000      14.08300000      17.27400000 
H      22.89900000      14.16900000      20.36400000 
H      21.84800000      13.49700000      19.13600000 
H      22.35200000      12.50700000      20.48500000 
N      22.27600000       9.00300000      16.16700000 
C      22.52400000       7.67100000      15.64000000 
C      22.31800000       7.56500000      14.13800000 
O      22.84000000       6.62800000      13.51700000 
C      21.66700000       6.60700000      16.35400000 
C      21.93700000       6.54400000      17.85600000 
C      23.36500000       6.17700000      18.24000000 
O      24.01300000       5.40600000      17.47100000 
O      23.80300000       6.64700000      19.33200000 
H      21.32900000       9.26300000      16.34400000 
H      23.56300000       7.44100000      15.80400000 
H      20.61800000       6.82100000      16.18200000 
H      21.88800000       5.65000000      15.90300000 
H      21.68500000       7.47800000      18.33400000 
H      21.28400000       5.79000000      18.29000000 
N      21.55000000       8.48100000      13.52100000 
C      21.29400000       8.44200000      12.09200000 
C      22.38600000       9.13300000      11.27800000 
O      22.42900000       8.96600000      10.04800000 
C      19.94100000       9.08900000      11.77900000 
C      18.79400000       8.30800000      12.37700000 
O      18.69500000       7.08300000      12.20500000 
N      17.89500000       9.00900000      13.07300000 
H      21.14800000       9.21600000      14.05900000 
H      21.28200000       7.41200000      11.77200000 
H      19.93200000      10.11000000      12.13100000 
H      19.80100000       9.10800000      10.70700000 
H      17.10900000       8.55100000      13.47400000 
H      18.00000000       9.98200000      13.24400000 
N      23.22600000       9.92300000      11.94600000 
C      24.32900000      10.64200000      11.35000000 
C      25.57700000       9.76100000      11.29700000 
O      25.62900000       8.66100000      11.86100000 
C      24.50700000      12.00200000      12.06400000 
C      24.69400000      11.99800000      13.59400000 
C      26.11100000      11.61500000      14.03800000 
C      24.31800000      13.38200000      14.14100000 
H      23.13200000       9.96400000      12.93200000 
H      24.06800000      10.85500000      10.32300000 
H      25.32700000      12.54400000      11.60600000 
H      23.60500000      12.55500000      11.83400000 
H      24.00800000      11.28500000      14.03700000 
H      26.17900000      11.64000000      15.12000000 
H      26.38800000      10.61900000      13.72100000 
H      26.83900000      12.31000000      13.63900000 
H      24.46600000      13.41500000      15.21100000 
H      24.93800000      14.14800000      13.70000000 
H      23.27800000      13.60800000      13.94200000 
N      26.60100000      10.22600000      10.56000000 
C      27.79900000       9.46400000      10.33600000 
C      28.89400000       9.84200000      11.32800000 
O      28.84400000      10.86400000      12.02200000 
C      28.30900000       9.66400000       8.90300000 
O      28.74600000      11.04200000       8.84800000 
C      27.26100000       9.37200000       7.84100000 
H      26.55200000      11.13300000      10.15600000 
H      27.56400000       8.41800000      10.47000000 
H      29.16600000       9.02300000       8.75100000 
H      28.98100000      11.33200000       7.97000000 
H      27.70000000       9.47900000       6.85500000 
H      26.89500000       8.35700000       7.93800000 
H      26.42400000      10.05200000       7.91900000 
N      30.23500000      13.34600000      10.47000000 
C      29.41300000      14.48800000      10.85300000 
C      29.63800000      14.85300000      12.31300000 
O      29.67300000      16.04900000      12.65600000 
C      27.93700000      14.17400000      10.53500000 
C      26.99400000      15.37500000      10.52800000 
C      26.47100000      15.86300000      11.87200000 
O      26.80200000      15.24300000      12.92100000 
O      25.69300000      16.86500000      11.83900000 
H      29.77400000      12.51100000      10.17300000 
H      29.72400000      15.35400000      10.28900000 
H      27.93200000      13.74100000       9.54100000 
H      27.57700000      13.41500000      11.21300000 
H      27.44600000      16.21900000      10.01800000 
H      26.11700000      15.11400000       9.94400000 
N      29.84100000      13.86500000      13.18700000 
C      29.97400000      14.08900000      14.62500000 
C      31.04500000      15.13100000      14.92600000 
O      30.84500000      15.99300000      15.80200000 
C      30.23300000      12.70800000      15.26900000 
C      30.28200000      12.58600000      16.80600000 
C      31.61000000      13.05200000      17.42200000 
C      29.07300000      13.22700000      17.50100000 
H      29.77200000      12.92200000      12.86800000 
H      29.05600000      14.51200000      15.00500000 
H      29.42300000      12.07500000      14.92200000 
H      31.14700000      12.30200000      14.85100000 
H      30.22000000      11.51600000      16.98900000 
H      31.66000000      12.75600000      18.46500000 
H      32.45500000      12.60200000      16.91300000 
H      31.72400000      14.12800000      17.37400000 
H      29.06600000      12.97200000      18.55500000 
H      29.09100000      14.30800000      17.42300000 
H      28.14200000      12.87400000      17.06800000 
N      29.01600000      10.67800000      21.35200000 
C      27.59600000      10.95900000      21.20500000 
C      26.83600000      10.63700000      22.48200000 
O      25.89800000      11.36300000      22.85500000 
C      27.03100000      10.14100000      20.04100000 
H      29.44900000      10.09600000      20.67100000 
H      27.44400000      12.01300000      21.02700000 
H      25.96200000      10.27600000      19.97800000 
H      27.47300000      10.46900000      19.10900000 
H      27.23800000       9.08700000      20.17600000 
N      27.18200000       9.53600000      23.16000000 
C      26.46800000       9.11600000      24.35400000 
C      26.68900000      10.12200000      25.47600000 
O      25.75600000      10.48700000      26.21800000 
C      26.93900000       7.73000000      24.84200000 
C      27.04600000       6.62800000      23.77100000 
C      27.42100000       5.30900000      24.45900000 
C      25.77200000       6.46800000      22.93900000 
H      27.93200000       8.97700000      22.82400000 
H      25.40800000       9.10700000      24.15300000 
H      27.90800000       7.83600000      25.31800000 
H      26.24000000       7.41500000      25.61200000 
H      27.86000000       6.88300000      23.09700000 
H      27.58200000       4.52700000      23.72500000 
H      28.33100000       5.41400000      25.04200000 
H      26.62800000       4.98700000      25.12600000 
H      25.89500000       5.67300000      22.21100000 
H      24.92900000       6.21400000      23.57300000 
H      25.52800000       7.37200000      22.39600000 
N      24.87500000      13.49500000      25.15300000 
C      23.50900000      13.52400000      25.65400000 
C      23.46400000      13.67400000      27.16400000 
O      22.61500000      14.42600000      27.67200000 
C      22.65300000      12.31900000      25.22400000 
O      23.03300000      11.09800000      25.87200000 
C      22.58600000      12.15900000      23.71600000 
H      25.20900000      12.72600000      24.61300000 
H      23.01600000      14.40500000      25.26900000 
H      21.66200000      12.52000000      25.60000000 
H      23.94900000      10.82900000      25.77300000 
H      21.87300000      11.38400000      23.48900000 
H      22.25500000      13.07800000      23.24900000 
H      23.54000000      11.87600000      23.29500000 
N      18.48900000      21.80400000      20.28800000 
C      18.98800000      20.73000000      19.44700000 
C      18.53800000      20.94300000      18.00900000 
O      19.33400000      20.79100000      17.06700000 
C      18.52000000      19.37000000      20.00700000 
O      19.10200000      19.18400000      21.30400000 
C      18.95700000      18.20600000      19.14200000 
H      17.94400000      21.57400000      21.09400000 
H      20.06800000      20.73700000      19.42900000 
H      17.44000000      19.38200000      20.09600000 
H      18.59900000      19.61000000      22.00100000 
H      18.66600000      17.28200000      19.61900000 
H      18.48800000      18.24100000      18.17000000 
H      20.03200000      18.20500000      19.01300000 
N      19.73000000      17.37900000       7.69600000 
C      19.16700000      16.06100000       7.49500000 
C      17.68200000      16.05700000       7.81000000 
O      17.20300000      16.74900000       8.72500000 
C      19.87000000      15.03200000       8.40100000 
C      21.31100000      14.76000000       7.94300000 
C      22.09800000      14.13200000       9.06300000 
O      21.85900000      12.97300000       9.45200000 
N      23.02600000      14.90300000       9.63600000 
H      19.72400000      17.74800000       8.62000000 
H      19.31100000      15.79700000       6.46000000 
H      19.85900000      15.41800000       9.41400000 
H      19.31900000      14.10300000       8.39900000 
H      21.30100000      14.07400000       7.10600000 
H      21.78500000      15.67600000       7.63100000 
H      23.21700000      15.82000000       9.29700000 
H      23.55000000      14.56800000      10.41100000 
N      16.10300000      13.84300000       9.34700000 
C      15.91900000      13.36000000      10.70100000 
C      15.75900000      14.48400000      11.71400000 
O      15.26300000      14.20100000      12.82400000 
C      17.04100000      12.39600000      11.12500000 
C      18.44600000      13.01200000      11.09600000 
S      19.44600000      12.79800000      12.66800000 
C      18.56200000      13.98100000      13.80700000 
H      16.92100000      13.57200000       8.85200000 
H      14.98900000      12.81400000      10.74900000 
H      16.78800000      12.03700000      12.11200000 
H      17.00200000      11.53800000      10.46500000 
H      19.05600000      12.56000000      10.33200000 
H      18.42000000      14.07400000      10.90900000 
H      19.21300000      14.12400000      14.64800000 
H      18.40900000      14.91600000      13.29500000 
H      17.62100000      13.56600000      14.12400000 
N      12.14900000      14.28700000      12.18000000 
C      11.81200000      13.08200000      12.92300000 
C      11.97200000      13.31900000      14.41500000 
O      11.11900000      12.88200000      15.20400000 
C      12.68300000      11.90500000      12.44200000 
C      12.46800000      10.60100000      13.22600000 
C      13.37600000      10.46700000      14.43100000 
O      14.57400000      10.79800000      14.37400000 
N      12.84700000       9.94400000      15.54200000 
H      12.90800000      14.26000000      11.53800000 
H      10.77000000      12.84300000      12.77600000 
H      12.44800000      11.73700000      11.40000000 
H      13.72300000      12.18100000      12.50500000 
H      11.43200000      10.48000000      13.51200000 
H      12.71500000       9.76900000      12.57600000 
H      11.88500000       9.71100000      15.61400000 
H      13.41500000       9.82800000      16.35100000 
N      13.04800000      13.98900000      14.84400000 
C      13.21000000      14.26200000      16.26100000 
C      12.10500000      15.18400000      16.74500000 
O      11.50000000      14.95000000      17.81000000 
C      14.58600000      14.88000000      16.55700000 
C      14.78200000      15.20800000      18.04900000 
C      14.75800000      13.93900000      18.90500000 
C      16.06700000      16.01200000      18.26800000 
H      13.77100000      14.24800000      14.20200000 
H      13.08600000      13.34300000      16.81000000 
H      15.34700000      14.17600000      16.23700000 
H      14.70500000      15.78000000      15.96400000 
H      13.96600000      15.84400000      18.36800000 
H      14.97900000      14.16700000      19.93800000 
H      13.79000000      13.45600000      18.88500000 
H      15.49400000      13.22300000      18.56200000 
H      16.19500000      16.23400000      19.32100000 
H      16.94000000      15.46700000      17.93600000 
H      16.03300000      16.95300000      17.73100000 
H      14.43093162      13.25187012      26.68228560 
H      29.69454888       9.25282882      11.43753904 
H      30.76574703      13.57567773       9.78039452 
H      31.90753777      15.12201533      14.42008709 
H      29.47889177      11.44948891      21.32884681 
H      27.59922297      10.50593380      25.63120624 
H      25.01260922      14.20292131      24.61456605 
H      24.11212831      13.17119823      27.73594411 
H      19.18174355      22.27864511      20.61175670 
H      17.59352163      21.20795872      17.81468715 
H      20.59517181      17.37712746       7.44806001 
H      17.05890028      15.48656338       7.27488431 
H      15.42060589      13.56132939       8.83221854 
H      16.04741297      15.41254376      11.48028126 
H      11.44251393      14.54150109      11.68390866 
H      11.85499132      15.98967136      16.20798108 
