622
Properties=species:S:1:pos:R:3 pbc="F F F"
N      47.02400000      34.59900000      51.51400000 
C      45.78800000      35.19300000      51.88300000 
C      46.00200000      37.01900000      51.67400000 
O      45.10600000      37.41000000      50.70100000 
C      45.15300000      35.03600000      53.11500000 
O      46.38900000      35.12300000      53.93000000 
H      47.44600000      34.33100000      52.22600000 
H      44.87900000      35.01600000      51.02200000 
H      44.50700000      35.48700000      53.50400000 
H      44.95200000      33.83800000      53.19500000 
H      46.22000000      34.78800000      55.05900000 
N      46.54500000      37.35700000      52.35400000 
C      46.79800000      38.98600000      52.30800000 
C      48.20500000      39.22900000      52.31600000 
O      49.31700000      38.39400000      52.56900000 
C      46.37800000      39.46800000      54.12700000 
C      47.22400000      39.12600000      54.88500000 
C      44.45700000      39.37200000      53.63400000 
C      46.38500000      39.32300000      56.51000000 
H      47.23200000      36.90200000      53.16600000 
H      46.29700000      39.24700000      51.73000000 
H      46.40900000      40.54500000      53.73700000 
H      46.87800000      37.72100000      55.07700000 
H      47.93600000      39.10900000      54.94800000 
H      44.37600000      39.74700000      54.67700000 
H      44.34800000      39.43600000      53.18200000 
H      44.57000000      38.16900000      54.12100000 
H      47.17900000      39.18800000      57.18000000 
H      46.51800000      40.72400000      56.34100000 
H      45.62600000      39.19900000      56.59900000 
N      48.59800000      40.60600000      51.69100000 
C      49.99400000      40.85400000      51.43400000 
C      50.09500000      42.47700000      51.37400000 
O      48.93200000      43.14100000      51.49200000 
C      50.19600000      40.21500000      50.19700000 
C      51.69000000      39.77300000      49.82300000 
C      51.93800000      38.92200000      48.52200000 
O      53.16200000      39.11300000      48.22000000 
O      51.22600000      38.55900000      48.12700000 
H      47.79500000      41.07900000      51.49000000 
H      50.53400000      40.50900000      52.13800000 
H      49.67900000      39.53800000      49.78700000 
H      50.20300000      41.07200000      49.24000000 
H      52.50600000      40.49800000      50.16200000 
H      51.86100000      38.98900000      50.78600000 
N      51.12100000      42.57000000      51.37100000 
C      51.61800000      44.61100000      51.27300000 
C      52.73500000      44.60000000      50.11400000 
O      53.64000000      43.89200000      50.41800000 
C      51.56400000      44.96800000      52.60300000 
C      52.44400000      44.40900000      53.80400000 
O      52.19600000      44.42900000      54.75200000 
N      53.72300000      43.64500000      53.14200000 
H      51.93200000      42.43600000      51.36200000 
H      50.46800000      44.78900000      50.78100000 
H      52.04400000      46.03500000      52.44200000 
H      50.69800000      45.14800000      53.07500000 
H      54.15300000      43.26900000      53.94200000 
H      53.86900000      43.63800000      52.40500000 
N      52.10700000      45.57300000      49.35300000 
C      53.52600000      45.57500000      48.36400000 
C      53.50300000      47.24100000      48.05500000 
O      52.89400000      48.05900000      47.77000000 
C      52.88800000      45.23000000      46.98100000 
C      52.38900000      43.81800000      46.81800000 
C      51.93400000      43.09100000      45.57100000 
N      52.32900000      43.45000000      44.56600000 
C      52.08000000      43.02800000      43.13600000 
N      52.72200000      43.31700000      42.14700000 
N      50.89300000      42.21500000      42.68900000 
H      51.63900000      45.90300000      49.25200000 
H      54.19600000      45.18300000      48.38800000 
H      51.74100000      45.80100000      46.65900000 
H      53.49400000      45.62000000      46.00900000 
H      53.60800000      43.21100000      46.83100000 
H      52.11700000      43.44100000      47.67300000 
H      51.63000000      42.28400000      45.75200000 
H      50.71400000      43.80600000      45.62000000 
H      53.35300000      44.05100000      44.36000000 
H      53.43500000      43.78100000      42.10000000 
H      52.42500000      42.95700000      41.15200000 
H      50.29900000      42.03200000      44.05800000 
H      50.64700000      42.00000000      42.39600000 
N      54.90000000      47.72500000      48.90400000 
C      55.23800000      48.94600000      48.96100000 
C      55.70200000      49.66400000      47.95700000 
O      56.52900000      48.89000000      46.81900000 
C      56.21400000      49.31500000      50.14700000 
C      55.47100000      48.88000000      51.58000000 
C      54.85900000      49.65000000      52.07100000 
C      55.41800000      47.57800000      52.37400000 
C      54.19100000      49.82300000      53.42000000 
C      54.98500000      47.63600000      53.14700000 
C      54.28000000      47.83000000      53.92600000 
H      55.49700000      46.86800000      49.12400000 
H      54.18700000      49.51300000      49.30700000 
H      57.03100000      48.39300000      49.99400000 
H      56.48000000      50.04500000      50.18300000 
H      54.75400000      50.84300000      51.76400000 
H      56.21400000      46.69600000      51.54300000 
H      53.62600000      50.25100000      53.86500000 
H      55.04100000      46.17900000      53.79300000 
H      53.74800000      48.08700000      54.90000000 
N      55.44400000      51.14600000      47.60800000 
C      55.99600000      51.70200000      46.64100000 
C      56.46600000      53.03200000      47.23900000 
O      55.86500000      53.63400000      48.14500000 
C      54.67800000      52.11400000      45.52900000 
C      54.15600000      50.83900000      45.32600000 
C      55.28500000      53.45900000      44.73400000 
C      52.85200000      51.45100000      44.15800000 
H      54.88300000      51.36000000      48.33500000 
H      56.69900000      51.36000000      46.07700000 
H      53.99800000      52.72300000      46.33000000 
H      54.90900000      50.61600000      44.13500000 
H      54.08000000      50.42200000      45.50600000 
H      54.42200000      53.52300000      43.91600000 
H      55.53300000      54.12800000      45.04300000 
H      56.11700000      52.94000000      44.02000000 
H      52.39300000      50.30100000      43.86100000 
H      52.13200000      51.72200000      45.02200000 
H      52.89200000      51.97700000      43.53700000 
N      57.71200000      53.66100000      46.82500000 
C      57.81000000      55.04000000      47.19500000 
C      59.15500000      55.18600000      45.77400000 
O      59.43700000      54.89800000      45.48400000 
C      58.77100000      55.27200000      48.36900000 
C      59.89200000      55.17600000      48.57600000 
C      60.53100000      56.23200000      49.52500000 
C      61.01300000      57.39100000      48.40200000 
N      61.43400000      58.55000000      49.15700000 
H      58.18200000      53.12100000      46.14600000 
H      57.08900000      55.52100000      47.01700000 
H      58.39900000      56.35500000      48.64400000 
H      57.93700000      54.71600000      49.24200000 
H      60.21700000      53.94900000      49.30800000 
H      60.60700000      54.80800000      47.74800000 
H      60.26300000      56.29300000      50.31500000 
H      61.85900000      55.76000000      49.83300000 
H      61.60800000      57.27500000      47.95500000 
H      60.07800000      57.57600000      48.19000000 
H      61.31200000      59.33600000      48.88900000 
H      60.52600000      58.77600000      50.30400000 
H      62.20200000      58.50900000      49.81400000 
N      58.99900000      56.66100000      45.51000000 
C      59.66600000      57.47700000      44.73700000 
C      59.82600000      58.61200000      45.06000000 
O      58.71200000      59.49800000      45.50000000 
C      59.56600000      57.21600000      43.27000000 
C      57.71700000      57.78100000      42.84500000 
C      58.22900000      58.88300000      42.45200000 
O      56.59800000      59.79700000      42.39200000 
O      59.08000000      59.84400000      42.06300000 
H      58.05100000      57.48000000      46.18400000 
H      60.80800000      56.97600000      44.88000000 
H      60.12500000      57.56100000      42.65300000 
H      59.44200000      56.03800000      43.07900000 
H      57.74300000      57.14000000      41.92000000 
H      57.35500000      57.50800000      43.52400000 
N      52.89900000      57.33500000      49.93300000 
C      51.52200000      56.82500000      50.27100000 
C      51.96100000      54.99400000      50.08100000 
O      52.73800000      54.82100000      49.75800000 
C      50.37800000      56.80000000      49.37200000 
C      50.57500000      57.25600000      48.03000000 
C      50.27600000      58.17100000      47.10200000 
O      50.04200000      59.50200000      47.83800000 
O      50.25900000      58.33200000      45.96300000 
H      53.22200000      56.99800000      49.69700000 
H      51.18700000      56.65500000      51.35100000 
H      49.45500000      56.57100000      49.64800000 
H      50.08100000      58.25200000      49.77000000 
H      51.63000000      56.86500000      47.71700000 
H      50.04300000      56.22500000      47.41300000 
N      51.27200000      53.95400000      50.10600000 
C      51.21400000      52.92500000      50.20300000 
C      49.39500000      52.33200000      49.72100000 
O      48.99400000      52.63200000      49.75100000 
C      51.33100000      52.09200000      51.41300000 
C      50.69300000      52.47300000      52.74200000 
C      50.53300000      53.18900000      53.38100000 
C      49.66300000      51.26100000      53.23000000 
C      50.01300000      53.74500000      54.38600000 
C      49.10500000      51.27000000      53.72500000 
C      48.68400000      52.33100000      54.91100000 
H      49.65800000      54.61500000      50.61200000 
H      51.82500000      52.67900000      49.33800000 
H      51.91300000      51.07400000      51.24000000 
H      52.78200000      52.82400000      51.70500000 
H      51.36800000      54.31800000      53.23100000 
H      49.87400000      50.26400000      52.28400000 
H      49.73900000      54.40700000      55.07800000 
H      48.32100000      50.57100000      54.23300000 
H      48.28300000      52.58900000      55.53400000 
N      49.93700000      50.79800000      49.18100000 
C      48.86100000      50.15800000      48.95000000 
C      49.18400000      48.68100000      49.51500000 
O      49.64900000      48.40100000      49.78300000 
C      48.61500000      49.88700000      47.16900000 
C      48.43500000      51.30600000      46.58400000 
C      49.67800000      48.98000000      46.70300000 
H      50.77300000      50.43600000      49.16600000 
H      47.80200000      50.65100000      49.20100000 
H      47.58900000      49.46500000      47.10400000 
H      48.29400000      51.23800000      45.58200000 
H      47.73700000      51.98800000      47.04200000 
H      49.49700000      51.88700000      46.70500000 
H      49.47800000      49.08300000      45.49600000 
H      50.67400000      49.55800000      46.78300000 
H      49.65500000      48.16600000      46.97700000 
N      47.59500000      48.01600000      49.70600000 
C      47.70400000      46.74700000      50.28700000 
C      46.52600000      45.86300000      49.12700000 
O      45.84600000      46.54700000      48.57100000 
C      46.98400000      46.68100000      51.73700000 
C      48.12200000      47.43800000      52.44600000 
C      45.65700000      47.34400000      51.60400000 
H      46.82200000      48.49500000      49.31900000 
H      48.53900000      46.31800000      50.15700000 
H      47.10600000      45.65900000      51.93400000 
H      47.68000000      47.29200000      53.73300000 
H      48.98400000      47.13100000      52.49400000 
H      47.99100000      48.51900000      52.39300000 
H      45.29900000      47.09900000      53.01700000 
H      45.55800000      48.19600000      51.58500000 
H      44.90600000      46.63100000      51.20900000 
N      46.88300000      44.76000000      49.33200000 
C      46.08100000      43.73300000      48.43800000 
C      45.42300000      42.61100000      49.10100000 
O      46.28400000      42.06500000      50.36200000 
C      46.68400000      43.23200000      47.23500000 
C      47.97500000      42.49100000      47.24300000 
C      47.59200000      44.52900000      46.73400000 
C      47.40700000      40.71100000      47.10800000 
H      47.52800000      44.11700000      49.93100000 
H      45.12600000      44.29600000      48.08100000 
H      46.00600000      42.71900000      46.55500000 
H      48.70200000      42.42300000      46.80300000 
H      48.37400000      42.40800000      48.49700000 
H      47.69600000      44.07400000      45.23800000 
H      46.43200000      45.25400000      46.19800000 
H      47.90500000      44.83100000      46.73800000 
H      48.52300000      40.06500000      47.38800000 
H      46.75100000      40.44500000      48.01000000 
H      47.17900000      40.61500000      46.31000000 
N      44.51300000      41.76900000      49.16500000 
C      43.93000000      40.95300000      49.76800000 
C      43.14200000      39.90900000      48.30100000 
O      42.85400000      40.15600000      47.77900000 
C      42.85400000      40.98300000      50.60400000 
C      41.81700000      41.58300000      50.27000000 
C      40.66500000      41.38700000      51.29100000 
O      39.40300000      42.26100000      51.19800000 
O      40.37500000      40.35900000      51.86100000 
H      43.70300000      42.47900000      48.13500000 
H      44.80600000      40.29600000      49.91900000 
H      42.72200000      40.02600000      51.18600000 
H      43.66200000      41.59900000      51.62800000 
H      41.89900000      42.98000000      50.51000000 
H      41.45800000      41.61300000      49.45000000 
N      43.07200000      38.68200000      48.57200000 
C      42.51000000      37.42700000      48.28100000 
C      41.59200000      36.92300000      48.72600000 
O      41.97800000      36.34700000      50.25500000 
C      43.58800000      36.59200000      47.37000000 
C      44.34600000      37.53100000      46.34000000 
C      45.44200000      36.43800000      45.47700000 
N      45.68800000      36.95600000      44.85600000 
C      47.11100000      36.63400000      43.53900000 
N      47.52000000      36.95100000      42.58100000 
N      47.62800000      35.62100000      43.71300000 
H      43.85400000      38.16900000      49.80300000 
H      41.95300000      38.17900000      47.27800000 
H      44.08900000      36.12800000      48.15500000 
H      42.93800000      35.81100000      46.89000000 
H      43.78300000      37.81900000      45.68400000 
H      44.96500000      38.06000000      46.83300000 
H      46.13500000      35.99300000      46.32300000 
H      44.79100000      35.52400000      45.22700000 
H      45.46100000      37.99100000      44.04300000 
H      46.57200000      38.25100000      42.34600000 
H      47.80600000      37.09200000      42.06400000 
H      47.23500000      34.80900000      44.89800000 
H      48.11700000      35.17000000      43.49000000 
N      41.43600000      44.99700000      46.04700000 
C      42.66200000      46.11100000      46.00800000 
C      42.07900000      47.35300000      46.54900000 
O      41.37200000      47.96600000      45.44800000 
C      43.40100000      46.07900000      44.80000000 
C      44.02700000      44.56700000      44.28100000 
C      44.88300000      44.33200000      43.63600000 
C      45.40900000      42.93800000      43.07500000 
N      46.55700000      42.89000000      41.85200000 
H      40.75800000      45.33300000      45.20200000 
H      43.14900000      45.64900000      46.93900000 
H      43.00200000      46.34500000      44.09800000 
H      44.33700000      46.54900000      45.01300000 
H      44.31200000      44.03500000      45.36400000 
H      43.01700000      43.94800000      44.18100000 
H      44.48000000      45.05800000      42.32600000 
H      45.82400000      44.94100000      43.62800000 
H      45.47800000      42.51100000      43.85700000 
H      44.31500000      42.51000000      42.54500000 
H      46.51900000      42.03900000      41.83500000 
H      46.17100000      43.30800000      41.26500000 
H      47.12000000      43.22000000      42.40000000 
N      42.23800000      47.86300000      47.35400000 
C      41.70200000      49.33000000      47.81400000 
C      42.95900000      49.97300000      48.81200000 
O      43.50700000      49.57200000      49.32300000 
C      40.44900000      49.13200000      49.02500000 
C      40.06500000      50.59700000      49.20900000 
C      39.60300000      47.97800000      48.63700000 
H      42.82300000      47.41600000      48.24500000 
H      41.43400000      49.66300000      47.17100000 
H      40.90800000      48.73800000      49.88800000 
H      38.94400000      50.30700000      49.84900000 
H      40.30500000      51.05600000      49.34800000 
H      39.27200000      50.73200000      48.01200000 
H      38.68900000      47.95100000      49.15600000 
H      39.08600000      48.26200000      47.33800000 
H      40.00000000      46.96500000      48.42700000 
N      43.11300000      51.02500000      48.43200000 
C      44.05400000      52.10500000      48.76600000 
C      43.45400000      52.85100000      50.10600000 
O      42.62400000      53.14800000      50.27600000 
C      44.47800000      53.25700000      47.67500000 
O      44.88500000      52.27200000      46.58800000 
C      45.39700000      54.25600000      48.20800000 
H      42.31500000      51.74100000      47.57200000 
H      44.90600000      51.55100000      48.96500000 
H      43.48000000      53.64300000      47.40900000 
H      45.05100000      52.86600000      45.83200000 
H      45.73500000      54.76600000      47.16000000 
H      45.08000000      54.84400000      48.77700000 
H      46.33700000      53.72000000      48.44300000 
N      44.75400000      53.09700000      51.01500000 
C      44.55200000      53.84600000      52.18500000 
C      45.50600000      55.01500000      52.22800000 
O      46.66700000      54.66100000      51.95200000 
C      44.71000000      52.85600000      53.24700000 
H      45.45300000      52.79100000      50.78800000 
H      43.43400000      54.29000000      52.20400000 
H      44.46300000      53.58500000      54.49200000 
H      43.87600000      52.12900000      53.41000000 
H      45.60400000      52.53400000      53.45200000 
N      45.18500000      55.97300000      52.61300000 
C      45.96700000      57.46100000      52.86500000 
C      46.94300000      57.27100000      53.97300000 
O      47.93100000      57.21300000      54.11300000 
C      45.55000000      58.62700000      52.33400000 
C      46.29900000      59.97000000      52.28600000 
C      47.21600000      59.70500000      50.99800000 
C      46.32900000      60.52100000      53.21500000 
C      48.04100000      60.91000000      51.04500000 
C      47.30400000      61.96600000      53.15200000 
C      48.25700000      61.90000000      51.71700000 
O      49.00400000      62.79200000      51.71400000 
H      44.11000000      56.34500000      52.85600000 
H      46.93400000      57.07900000      51.94100000 
H      44.83600000      58.43800000      51.42000000 
H      44.56200000      58.80800000      53.15400000 
H      47.11500000      59.19600000      50.40300000 
H      45.79400000      60.73900000      54.01200000 
H      48.63700000      60.97400000      50.20200000 
H      47.36300000      62.52900000      53.79100000 
H      49.07700000      63.59500000      52.53600000 
N      44.89000000      55.77600000      56.78800000 
C      43.93300000      55.25600000      58.03000000 
C      44.61100000      53.67700000      58.26900000 
O      45.90900000      53.50300000      58.02500000 
C      42.73800000      54.65300000      56.96000000 
C      41.53100000      55.14500000      58.41000000 
O      41.45700000      55.89400000      58.87000000 
N      40.17100000      54.02000000      58.10200000 
H      44.90800000      55.56700000      56.13700000 
H      43.86300000      55.52900000      58.67600000 
H      42.49300000      55.48800000      56.42200000 
H      42.52200000      53.86200000      56.80100000 
H      39.73400000      54.30900000      58.63700000 
H      40.44200000      53.46600000      57.53400000 
N      43.87000000      52.89300000      58.99100000 
C      44.67000000      51.62900000      59.61400000 
C      44.44800000      51.55900000      60.94900000 
O      45.33400000      52.79800000      61.55600000 
H      43.08500000      53.08000000      59.18500000 
H      43.66500000      50.81700000      59.30000000 
H      45.30200000      51.42200000      59.06600000 
N      47.70100000      53.59400000      63.01800000 
C      49.21600000      53.41400000      62.24700000 
C      49.23800000      55.32300000      61.74300000 
O      48.62100000      55.83700000      61.83100000 
C      48.93900000      52.68100000      60.73600000 
C      49.36600000      51.48100000      60.61000000 
C      50.51100000      51.19400000      61.10400000 
C      48.71100000      50.46900000      61.97600000 
H      47.03400000      53.28200000      62.47800000 
H      49.76000000      53.26100000      62.48700000 
H      47.69900000      52.94900000      60.42400000 
H      49.41400000      53.33400000      59.90600000 
H      48.92600000      50.95800000      59.87600000 
H      51.09000000      50.10500000      60.74300000 
H      51.36100000      51.86700000      59.87800000 
H      51.16800000      51.51900000      61.72100000 
H      48.81900000      49.54700000      61.75600000 
H      48.82500000      50.80900000      62.73600000 
H      47.37100000      50.61600000      61.80900000 
N      51.43400000      55.85100000      58.88600000 
C      52.01800000      56.37100000      57.92200000 
C      53.03000000      54.88300000      57.10300000 
O      52.38000000      54.00900000      57.44200000 
H      51.11800000      55.49800000      59.13300000 
H      51.47000000      56.54900000      57.01200000 
H      52.99800000      57.22400000      57.75900000 
N      54.16600000      55.19400000      56.58900000 
C      54.86300000      54.12900000      56.12000000 
C      55.43600000      53.57500000      56.91200000 
O      56.68000000      53.93500000      57.73100000 
C      55.68400000      54.49100000      54.87100000 
C      54.99300000      54.65900000      53.51100000 
O      54.57600000      53.73300000      53.11400000 
N      54.92100000      56.03100000      53.24400000 
H      54.44900000      56.03700000      56.57100000 
H      54.07000000      53.38300000      55.57700000 
H      56.23000000      55.69200000      55.23300000 
H      56.53500000      53.90800000      54.76100000 
H      54.29900000      55.96400000      52.13400000 
H      55.02700000      56.66300000      53.34800000 
N      55.12100000      51.95900000      57.41800000 
C      55.61600000      51.25600000      58.46700000 
C      56.05400000      49.84200000      57.91300000 
O      55.16900000      49.42300000      56.93800000 
C      54.67100000      51.01300000      59.58500000 
C      54.69700000      49.91700000      60.52400000 
C      54.64400000      52.64000000      60.40300000 
H      54.38000000      51.80000000      56.91600000 
H      56.62300000      51.70200000      58.80700000 
H      53.63100000      50.99700000      59.10000000 
H      54.17700000      50.03400000      61.33100000 
H      54.81200000      49.08300000      60.03000000 
H      55.97000000      50.07500000      61.03000000 
H      53.82100000      52.43500000      61.11300000 
H      55.50200000      52.65300000      60.84900000 
H      54.38200000      53.26700000      59.76100000 
N      56.83800000      49.29500000      58.03100000 
C      57.34900000      47.89400000      57.69700000 
C      57.89600000      47.16300000      58.78500000 
O      59.03800000      47.44000000      59.61900000 
C      59.01800000      48.33200000      56.97200000 
C      59.13900000      46.82500000      56.22800000 
C      59.13400000      46.73200000      54.61600000 
N      60.49900000      46.25900000      54.04200000 
C      60.83800000      45.31800000      53.62600000 
N      61.58900000      44.16900000      52.91700000 
N      59.18600000      43.82500000      53.68000000 
H      57.75800000      49.81100000      58.96800000 
H      56.69800000      47.55300000      57.17800000 
H      58.32100000      48.90200000      55.90400000 
H      59.30200000      48.70800000      57.22600000 
H      60.63100000      47.11400000      56.36700000 
H      59.17300000      46.11500000      56.72600000 
H      58.32800000      46.16900000      54.56700000 
H      58.98600000      47.58800000      54.24500000 
H      60.99800000      46.62400000      53.99800000 
H      62.53800000      45.36100000      52.99000000 
H      61.90000000      43.92400000      52.75500000 
H      58.78100000      44.16700000      53.96500000 
H      59.78600000      43.02300000      53.18800000 
N      56.24100000      39.54800000      61.55100000 
C      56.15700000      40.73600000      60.18600000 
C      54.88800000      40.42700000      59.67800000 
O      54.50200000      40.11800000      58.37200000 
C      57.35400000      39.81300000      59.00200000 
C      58.72000000      39.84800000      59.28500000 
O      58.98900000      40.81700000      60.77200000 
O      59.44800000      39.39000000      58.85000000 
H      56.99500000      40.27200000      62.06700000 
H      56.47200000      41.34600000      60.25300000 
H      56.97300000      38.69400000      59.00100000 
H      57.06100000      40.26900000      58.21300000 
N      53.63500000      40.74400000      60.31400000 
C      52.58300000      40.76300000      60.11400000 
C      51.98200000      41.68700000      59.09100000 
O      52.34600000      42.71300000      59.13200000 
C      51.67100000      40.67500000      61.53400000 
C      51.46200000      41.96500000      62.07400000 
C      50.16200000      42.72200000      61.63700000 
C      51.22700000      41.45200000      63.59100000 
H      54.15300000      41.12400000      61.60800000 
H      52.35100000      39.56700000      59.71200000 
H      50.44900000      40.20400000      61.08400000 
H      51.96800000      39.85500000      62.00600000 
H      52.17900000      42.47700000      62.11400000 
H      50.08600000      43.73200000      62.29900000 
H      50.31400000      43.03700000      60.66100000 
H      49.25900000      42.16200000      61.81600000 
H      51.02000000      42.60500000      64.32900000 
H      50.26600000      40.99300000      63.85500000 
H      51.95100000      41.10000000      64.09000000 
N      51.17300000      41.19600000      58.04000000 
C      50.98200000      42.05100000      56.96300000 
C      49.84600000      43.29800000      57.69100000 
O      49.04300000      43.04800000      58.22800000 
C      50.17300000      41.36700000      55.97500000 
C      50.67200000      39.75800000      56.24400000 
C      50.79800000      40.05700000      57.70000000 
H      51.65800000      42.58900000      56.64400000 
H      48.94600000      41.26600000      56.16700000 
H      50.31000000      41.65900000      54.96400000 
H      50.12300000      39.15600000      55.81600000 
H      51.69700000      39.79800000      55.71400000 
H      49.88200000      39.53900000      58.21200000 
H      51.71500000      39.04300000      58.03300000 
N      50.26900000      44.62000000      56.85500000 
C      49.25700000      45.56600000      57.11100000 
C      47.95000000      45.52900000      56.55000000 
O      48.05400000      45.05500000      55.45500000 
C      50.20200000      46.91200000      56.71300000 
C      50.29200000      48.20300000      57.49200000 
C      51.05400000      49.08200000      56.74300000 
C      48.67000000      49.10100000      57.38500000 
H      50.86700000      44.53500000      56.35200000 
H      49.25900000      45.78100000      58.37900000 
H      51.30400000      46.61500000      56.76800000 
H      50.02100000      47.01800000      55.67000000 
H      50.19000000      48.05600000      58.46700000 
H      51.11000000      50.21600000      57.56600000 
H      52.20800000      48.75500000      57.19100000 
H      51.06200000      49.38100000      56.00900000 
H      48.72300000      49.81300000      57.60400000 
H      48.38200000      48.90300000      56.17300000 
H      47.85700000      48.31400000      57.84300000 
N      47.23500000      45.99700000      57.33500000 
C      45.42800000      45.71900000      56.66500000 
C      44.57800000      46.90600000      57.10200000 
O      45.04800000      47.54500000      58.25800000 
C      45.07300000      44.05200000      56.76300000 
C      44.85800000      44.23600000      58.45800000 
C      44.05700000      44.19900000      56.13700000 
H      47.03700000      46.30700000      58.10300000 
H      45.65900000      45.92400000      55.58400000 
H      45.84400000      43.77700000      56.69200000 
H      44.72000000      42.95400000      58.65900000 
H      45.70500000      44.42600000      59.08600000 
H      44.02500000      44.65800000      58.85000000 
H      43.72600000      42.78600000      56.19300000 
H      42.93100000      44.38500000      56.49600000 
H      43.99700000      44.18100000      55.14800000 
N      42.00100000      45.39200000      61.65700000 
C      42.59500000      44.30500000      62.57400000 
C      42.03700000      44.27000000      63.99400000 
O      42.44500000      45.37000000      64.74600000 
C      43.99600000      43.86800000      62.57400000 
C      44.36200000      42.47600000      63.31300000 
C      45.82400000      42.18300000      63.03100000 
N      46.18900000      42.21000000      62.09900000 
C      46.41900000      40.69600000      60.85600000 
N      45.59800000      39.65800000      61.62900000 
N      47.10000000      40.64700000      59.65200000 
H      42.63100000      46.33500000      62.34100000 
H      41.92900000      43.33600000      62.03100000 
H      44.31500000      43.82600000      61.36300000 
H      44.53800000      44.64800000      62.98800000 
H      44.08800000      42.53100000      64.11200000 
H      43.74300000      41.73000000      62.72600000 
H      46.39000000      42.85700000      63.50900000 
H      45.98200000      41.23000000      63.66800000 
H      46.76800000      42.75300000      61.23800000 
H      45.20400000      39.67100000      62.15600000 
H      45.84700000      38.91700000      60.98000000 
H      47.49000000      41.48300000      59.63300000 
H      46.98700000      40.09900000      59.41500000 
N      40.04400000      40.10400000      60.76100000 
C      40.80300000      40.75400000      59.38300000 
C      39.86400000      40.88700000      58.41800000 
O      39.26800000      40.23500000      57.79300000 
C      42.02800000      40.06500000      59.00300000 
C      41.56700000      38.22700000      58.93900000 
C      42.85300000      40.70100000      58.06100000 
H      39.50200000      39.17000000      60.23900000 
H      41.19200000      41.64400000      59.97200000 
H      42.69800000      39.82900000      60.05100000 
H      42.72000000      37.93800000      58.42700000 
H      41.30200000      37.99400000      59.30400000 
H      41.12900000      38.40200000      57.75400000 
H      43.82200000      40.13500000      57.86500000 
H      42.27100000      40.60400000      57.03000000 
H      42.99600000      41.60000000      58.27900000 
N      38.65700000      44.02900000      55.43700000 
C      39.21100000      45.17500000      54.11800000 
C      37.49100000      45.72900000      53.59600000 
O      37.17600000      44.55100000      52.93000000 
C      39.95200000      44.95000000      53.52000000 
C      40.69900000      46.11700000      52.76800000 
O      40.08900000      47.47700000      52.88400000 
N      41.91400000      45.55100000      51.92100000 
H      38.13300000      43.40700000      54.85500000 
H      39.17300000      46.12300000      55.01100000 
H      40.98800000      44.49600000      54.05600000 
H      39.88600000      44.16200000      52.71600000 
H      42.23000000      46.82200000      51.38800000 
H      42.10100000      45.22700000      51.84500000 
H      46.86980101      33.89383101      50.97645059 
H      60.74230548      59.01213923      45.04348129 
H      52.83040664      58.03905982      49.37658764 
H      40.74009358      36.88469032      48.20370906 
H      41.77375733      44.17371341      45.91239252 
H      46.61771235      57.15535100      54.91151652 
H      44.74813868      56.65340700      56.64646440 
H      43.84976359      50.84864103      61.31981441 
H      47.69865468      53.12836771      63.78818249 
H      50.06153666      55.72501088      61.34278177 
H      52.04010317      55.57758481      59.49253366 
H      57.47078422      46.30582381      59.07558652 
H      55.42180004      39.44279416      61.90855162 
H      43.76804516      47.16216880      56.57441048 
H      42.26045418      45.24358853      60.80808448 
H      41.45156200      43.51240349      64.28263450 
H      40.66745402      39.88336870      61.37143174 
H      39.56898786      41.79792004      58.12956887 
H      39.37480944      43.66323245      55.83820282 
H      37.15885729      46.63676780      53.85220077 
