 119 
 
N               230.6944491461       65.0266234737      118.5008020522
C               231.4825491661       65.3211857079      117.3269485295
C               232.1779960765       66.6864138271      117.3212022562
O               233.1343538110       66.8707929139      116.5769052058
H               229.8101190928       64.5534853483      118.3589949694
H               232.2754757441       64.5773935078      117.1843014570
H               230.8222513450       65.2880471553      116.4582060926
N               231.6506677990       67.6523313778      118.0788371950
C               232.1964054882       68.9902062159      118.0813118682
C               233.3968935414       69.1993162134      119.0111779280
O               234.0397343433       70.2386737029      118.9511587673
C               231.1043949018       70.0042807298      118.4344494133
C               229.9645815548       70.0268593081      117.4104364136
C               228.8358501956       70.9444688446      117.8733791631
C               230.4685524967       70.4833686009      116.0498421436
H               230.8535804717       67.4821689615      118.6839771514
H               232.5870976485       69.1854549032      117.0756763171
H               230.7103983494       69.7543705622      119.4211795568
H               231.5653549108       70.9910679604      118.4995803645
H               229.5610712165       69.0130051797      117.3206542216
H               228.0161592807       70.9117832411      117.1596525674
H               228.4632797978       70.6437248636      118.8501788227
H               229.1717433107       71.9772148745      117.9425662503
H               229.6439577087       70.5321293660      115.3478450051
H               230.9060683561       71.4745344502      116.1349096524
H               231.2153176208       69.7952511832      115.6624370685
N               232.5155298439       76.5334950765      117.6760112988
C               231.4637751703       75.5425953476      117.6542564250
C               230.1724355786       76.0470752501      118.3084958941
O               229.2890094182       75.2815103472      118.6653734831
C               231.8919120907       74.2242399334      118.3140813769
C               233.2523479617       73.7018776131      117.8563760197
C               233.3598362637       73.5006496266      116.3473344317
C               234.7581925495       73.0226384206      115.9780845363
N               234.9292652593       73.0695986944      114.5016575862
H               232.9231835550       76.7248808303      118.5864699555
H               231.2024929123       75.3646652369      116.6031313041
H               231.9220931932       74.3875695463      119.3929881929
H               231.1031635739       73.5015014604      118.1065321637
H               234.0246759182       74.4045855177      118.1710063568
H               233.4468536336       72.7560531814      118.3660486030
H               232.6153584331       72.7782098254      116.0145548343
H               233.1635493463       74.4468623566      115.8457954549
H               235.4953977476       73.6772689746      116.4461999636
H               234.9070446441       72.0022421163      116.3302633824
H               235.7868406715       72.5859649694      114.2128142546
H               234.0935199998       72.6469445299      114.0366715200
H               234.9736524581       74.0491270328      114.1948406519
N               223.1262651509       75.2596277624      114.2689731218
C               223.3133143614       74.0043597135      113.5876141706
C               221.9405720055       73.4294112829      113.2427461580
O               220.9388505461       73.7587683908      113.8589516420
C               224.0401433920       73.0108277302      114.5215136088
C               225.4792455901       73.3938352843      114.7302074552
C               225.9331393310       73.9531819479      115.9167767598
C               226.4005267421       73.1606447381      113.7200748901
C               227.2778291842       74.2031300654      116.1235739713
C               227.7457747427       73.3858104435      113.9173458080
C               228.1988194214       73.8829599675      115.1326118704
O               229.5274268122       74.0770395184      115.3682530320
H               222.4090022687       75.2598951313      114.9895119458
H               223.9036435659       74.1837413930      112.6842287753
H               223.5122591178       72.9971037294      115.4761091318
H               223.9906048417       72.0108855800      114.0861204998
H               225.2283479937       74.1853051031      116.6987546876
H               226.0655404819       72.7890320304      112.7647631283
H               227.6371893505       74.6145894156      117.0553121287
H               228.4466094938       73.1494702593      113.1330758539
H               230.0345122375       73.6346898989      114.6737994407
N               226.4186516931       65.6676130063      112.0361439412
C               227.4772597531       65.9577881291      112.9836625737
C               228.1912609636       67.2691090402      112.6242394073
O               229.4053914443       67.3088023753      112.5053700741
H               225.6688276245       65.0561773260      112.3235949020
H               227.0554765110       66.0278368988      113.9838468421
H               228.2295795854       65.1612533665      112.9612829320
N               227.4092427549       68.3759570471      112.5690258763
C               227.8475716255       69.4579725375      111.6896865157
C               229.0140682185       70.1513414224      112.3846755333
O               228.8841990923       70.6883390382      113.4711443542
C               226.6760968365       70.3868864490      111.4274450890
H               226.4076438843       68.2265368162      112.5438844134
H               228.2008682389       69.0195508563      110.7477295262
H               226.9871212178       71.2176918299      110.8000156249
H               225.8851789991       69.8330837857      110.9270391134
H               226.3064515118       70.7644373604      112.3754931777
N               230.1798612658       70.1295290788      111.7150669175
C               231.4444778111       70.3990880521      112.3614958247
C               231.7476154267       71.8839165580      112.5296467256
O               232.5211282023       72.2610118628      113.4015172920
C               232.5768114931       69.7352151988      111.5481463569
O               232.3505552897       70.0940207423      110.2000647931
C               232.5923504232       68.2233785068      111.7633956970
H               230.2542267358       69.6617654889      110.8227653389
H               231.4292931228       69.9705433172      113.3704791568
H               233.5352132994       70.1549230522      111.8874434569
H               233.0061547080       69.6580570591      109.6441443581
H               233.3124740110       67.7519775909      111.0985887184
H               232.8724989673       67.9952748000      112.7879690846
H               231.6106861326       67.7924461785      111.5827088992
N               231.1570125352       72.7180663717      111.6790077866
C               231.2670346858       74.1570953100      111.7810822238
C               229.8600971141       74.7477525589      111.6525522115
O               229.0176154888       74.1612426517      110.9723989358
C               232.1692669153       74.7297263567      110.6780660974
O               233.4940400494       74.3775702524      110.9811810959
H               230.4983003542       72.3741340912      110.9923963741
H               231.7253209350       74.3824186397      112.7478975805
H               231.8517200872       74.3209160827      109.7099279583
H               232.0377686538       75.8195678415      110.6528288152
H               234.0826078051       74.7108850132      110.2929146838
H               231.1652237705       64.4940786725      119.0528593751
H               233.6530333070       68.4872044605      119.6648516017
H               233.1932653458       76.2638695701      117.1487763648
H               230.0352010389       77.0269192320      118.4536594302
H               223.8939257182       75.4995220179      114.6728889541
H               221.8480827631       72.7682507065      112.4982245449
H               226.0110288319       66.4336119716      111.7972105022
H               229.6321788781       75.6025674178      112.1187547798
