171
Properties=species:S:1:pos:R:3 pbc="F F F"
N      24.00200000      13.11400000      47.22200000 
C      23.46300000      14.05000000      48.20000000 
C      23.84600000      13.56100000      49.58300000 
O      24.10100000      12.39000000      49.80800000 
C      21.93300000      14.29600000      48.05300000 
C      20.96900000      13.50400000      48.89200000 
C      20.40500000      14.07800000      50.04100000 
C      20.52700000      12.26600000      48.52200000 
C      19.45600000      13.42200000      50.79200000 
C      19.56300000      11.54900000      49.25200000 
C      19.02000000      12.17300000      50.39600000 
O      18.05900000      11.56400000      51.16100000 
H      24.25800000      12.22200000      47.50500000 
H      23.95100000      14.99900000      48.03700000 
H      21.78900000      15.36800000      48.29600000 
H      21.70500000      14.19500000      47.01300000 
H      20.72500000      15.06300000      50.35200000 
H      20.91800000      11.78400000      47.63100000 
H      19.02200000      13.86800000      51.66600000 
H      19.22300000      10.60100000      48.95100000 
H      17.76100000      10.69100000      50.82800000 
N      21.85400000      21.03800000      53.56000000 
C      21.45900000      20.03000000      52.58300000 
C      22.24000000      20.35300000      51.27100000 
O      22.19300000      21.48700000      50.80200000 
C      19.93600000      20.00000000      52.31300000 
C      19.59000000      18.77000000      51.48100000 
C      19.14500000      20.01300000      53.62700000 
H      21.65600000      22.00100000      53.36400000 
H      21.76400000      19.08100000      52.95500000 
H      19.66700000      20.90000000      51.75500000 
H      18.50600000      18.70700000      51.32500000 
H      20.04800000      18.79300000      50.48900000 
H      19.90400000      17.86500000      51.97100000 
H      18.08900000      19.90900000      53.42300000 
H      19.44500000      19.16900000      54.26200000 
H      19.29800000      20.91800000      54.18600000 
N      22.89400000      18.80100000      47.41300000 
C      22.33700000      17.88800000      46.43900000 
C      22.87400000      18.25700000      45.07700000 
O      22.79500000      19.43500000      44.67400000 
C      20.79000000      17.95500000      46.50500000 
C      20.06700000      16.99900000      45.59300000 
C      19.99200000      17.23100000      44.21500000 
C      19.46000000      15.85200000      46.12100000 
C      19.37100000      16.31200000      43.41300000 
C      18.83000000      14.92600000      45.27600000 
C      18.78900000      15.14800000      43.87800000 
H      22.77700000      19.79200000      47.24500000 
H      22.66700000      16.88800000      46.70300000 
H      20.51400000      17.76700000      47.53000000 
H      20.50200000      18.97200000      46.28300000 
H      20.41500000      18.11600000      43.80500000 
H      19.47500000      15.67300000      47.16000000 
H      19.33900000      16.51000000      42.31200000 
H      18.38300000      14.05600000      45.68400000 
H      18.33800000      14.45300000      43.25500000 
N      21.90900000      22.20800000      44.30600000 
C      20.97700000      22.79400000      45.25200000 
C      21.69700000      22.92800000      46.61300000 
O      22.25900000      21.92500000      47.09100000 
C      19.74000000      21.90300000      45.39600000 
C      18.78900000      22.38700000      46.51100000 
C      19.00800000      21.74700000      44.07400000 
H      22.23800000      21.30600000      44.51200000 
H      20.69200000      23.78300000      44.90100000 
H      20.10700000      20.91500000      45.70300000 
H      17.90800000      21.76400000      46.53600000 
H      19.23700000      22.38500000      47.47100000 
H      18.45500000      23.41800000      46.28500000 
H      18.15100000      21.07100000      44.19500000 
H      18.62900000      22.69500000      43.72000000 
H      19.64100000      21.32000000      43.30300000 
N      11.14000000      19.43300000      50.39300000 
C      12.17800000      20.12800000      49.67100000 
C      12.83200000      19.16000000      48.69400000 
O      12.66800000      19.33400000      47.44000000 
C      13.16500000      20.78900000      50.65500000 
C      13.99800000      21.90800000      50.03300000 
S      15.46500000      21.35600000      49.01500000 
C      16.64000000      20.84300000      50.37200000 
H      11.37900000      18.93100000      51.24700000 
H      11.71000000      20.86700000      49.07000000 
H      12.53300000      21.25000000      51.42000000 
H      13.77900000      20.07900000      51.14900000 
H      13.38900000      22.52300000      49.36200000 
H      14.38200000      22.55400000      50.80700000 
H      17.55800000      20.53900000      49.88500000 
H      16.85100000      21.72200000      51.00200000 
H      16.23500000      20.06100000      50.94500000 
N      13.52000000      18.10100000      49.13600000 
C      14.15800000      17.19300000      48.21600000 
C      13.14300000      16.33200000      47.45700000 
O      13.36900000      15.99400000      46.32700000 
C      15.22700000      16.27800000      48.88900000 
C      16.45300000      17.13300000      49.31900000 
C      14.73500000      15.44900000      50.05900000 
H      13.64200000      17.99100000      50.12400000 
H      14.64200000      17.75200000      47.45500000 
H      15.56300000      15.61400000      48.10500000 
H      17.23900000      16.48200000      49.66700000 
H      16.83700000      17.70600000      48.47300000 
H      16.19400000      17.81200000      50.10500000 
H      15.54100000      14.82600000      50.43600000 
H      14.38100000      16.05100000      50.88800000 
H      13.91800000      14.77100000      49.76700000 
N      12.03700000      15.94700000      48.12600000 
C      11.10600000      14.97100000      47.51500000 
C      10.43200000      15.55200000      46.30000000 
O      10.15700000      14.81900000      45.34400000 
C      10.13400000      14.48000000      48.60300000 
C       9.25800000      13.30800000      48.14200000 
C       8.02700000      13.64900000      47.29100000 
O       7.53700000      14.80300000      47.42600000 
O       7.57500000      12.73300000      46.57700000 
H      11.86300000      16.24900000      49.04500000 
H      11.68800000      14.13200000      47.16500000 
H      10.71900000      14.17600000      49.44000000 
H       9.49200000      15.30000000      48.91700000 
H       9.84900000      12.57100000      47.61300000 
H       8.87700000      12.80200000      49.04100000 
N      11.64600000      17.73100000      44.03900000 
C      12.49200000      17.73900000      42.85500000 
C      12.82700000      16.35700000      42.33400000 
O      12.81600000      16.16600000      41.12800000 
C      13.81700000      18.55000000      43.09800000 
C      13.80400000      19.89600000      42.37800000 
C      12.96000000      20.93100000      43.12000000 
C      15.24900000      20.43600000      42.18800000 
H      12.00400000      17.93200000      44.91800000 
H      11.93800000      18.20500000      42.05400000 
H      13.99100000      18.66600000      44.13300000 
H      14.63800000      17.95000000      42.70000000 
H      13.38700000      19.76300000      41.37900000 
H      12.90000000      21.85600000      42.59100000 
H      11.94300000      20.56600000      43.27600000 
H      13.39000000      21.12000000      44.10900000 
H      15.23500000      21.37800000      41.67300000 
H      15.73400000      20.56700000      43.14700000 
H      15.83100000      19.74100000      41.60100000 
N      13.16000000      15.39000000      43.21500000 
C      13.59300000      14.07300000      42.74300000 
C      12.36800000      13.18300000      42.56600000 
O      12.18400000      12.10600000      43.17200000 
C      14.75100000      13.49500000      43.57100000 
C      15.40400000      12.29900000      42.81900000 
C      14.44900000      13.13700000      45.01400000 
C      15.83400000      12.55700000      41.39900000 
H      13.12900000      15.58200000      44.21100000 
H      13.95900000      14.24100000      41.74600000 
H      15.49400000      14.30000000      43.57300000 
H      16.30800000      12.02700000      43.42400000 
H      14.75300000      11.44300000      42.87800000 
H      15.37400000      12.90300000      45.53500000 
H      13.95800000      13.93600000      45.54400000 
H      13.80400000      12.24500000      45.06900000 
H      16.50200000      11.78800000      41.03500000 
H      14.98900000      12.59500000      40.71700000 
H      16.36300000      13.51700000      41.31000000 
H      23.39420480      12.97434567      46.57309195 
H      23.89566287      14.20612425      50.34546200 
H      21.44165587      20.87508437      54.34321824 
H      22.77390122      19.63888103      50.81824888 
H      22.51701269      18.65012682      48.21619229 
H      23.29282191      17.55723590      44.49827864 
H      21.51782045      22.14639281      43.49780255 
H      21.70461661      23.80673640      47.09024661 
H      10.50701747      20.01972341      50.64812497 
H      10.20927936      16.52641280      46.26974752 
H      10.98772112      18.33701640      43.94197919 
H      11.64397336      13.44961864      41.92983970 
