372
Properties=species:S:1:pos:R:3 pbc="F F F"
N      36.15900000      31.13300000      48.54700000 
C      34.78500000      30.67300000      48.73200000 
C      34.73400000      29.20100000      48.32800000 
O      35.38600000      28.78800000      47.36900000 
C      33.70600000      31.47300000      47.97900000 
C      34.15000000      32.19400000      46.68900000 
C      32.95800000      32.29700000      45.71100000 
N      32.95000000      33.55800000      44.97200000 
C      32.74800000      33.73400000      43.67900000 
N      32.42400000      32.72400000      42.88100000 
N      32.83600000      34.94000000      43.12300000 
H      36.61800000      30.75600000      47.73400000 
H      34.58600000      30.74000000      49.79500000 
H      32.89600000      30.79200000      47.74800000 
H      33.29000000      32.20400000      48.64200000 
H      34.53100000      33.17500000      46.93300000 
H      34.96000000      31.66500000      46.19100000 
H      33.03800000      31.50900000      45.00200000 
H      32.02800000      32.21000000      46.23000000 
H      33.04900000      34.41800000      45.52300000 
H      32.19900000      31.83300000      43.21400000 
H      32.71000000      32.76700000      41.88900000 
H      33.16100000      35.72400000      43.66000000 
H      32.57600000      35.10300000      42.19300000 
N      33.87800000      28.45200000      49.05200000 
C      33.59100000      27.06100000      48.69400000 
C      32.15500000      26.75800000      49.04500000 
O      31.32300000      26.50000000      48.12700000 
C      34.57200000      26.09200000      49.34900000 
O      34.16500000      24.76900000      48.97900000 
H      33.45800000      28.83000000      49.83300000 
H      33.66800000      26.94600000      47.61700000 
H      35.56700000      26.30500000      48.98600000 
H      34.57400000      26.20200000      50.43300000 
H      34.57700000      24.09700000      49.45400000 
N      40.74300000      30.39800000      38.63700000 
C      39.52500000      29.98600000      37.93900000 
C      38.88600000      31.13300000      37.12000000 
O      37.68700000      31.15600000      36.90400000 
C      38.47800000      29.38400000      38.89300000 
C      38.82000000      27.98900000      39.37300000 
O      38.28600000      26.99900000      38.81200000 
N      39.64800000      27.83700000      40.39200000 
H      41.56100000      29.90200000      38.35900000 
H      39.81700000      29.25100000      37.20600000 
H      38.37900000      30.04100000      39.74100000 
H      37.53300000      29.32300000      38.38800000 
H      39.86800000      26.94100000      40.72000000 
H      40.06300000      28.61300000      40.87200000 
N      23.41800000      17.31500000      44.33300000 
C      23.99800000      17.58700000      43.02200000 
C      23.62200000      16.47000000      42.05500000 
O      23.66900000      15.27000000      42.43200000 
C      25.52600000      17.71300000      43.18200000 
C      26.31600000      18.16900000      41.93300000 
C      27.67800000      18.76300000      42.30300000 
C      28.61000000      17.74700000      42.96300000 
N      29.86900000      18.41500000      43.44900000 
H      23.53400000      16.38600000      44.68500000 
H      23.59000000      18.51900000      42.66200000 
H      25.68100000      18.44600000      43.96500000 
H      25.90600000      16.77900000      43.54800000 
H      26.43700000      17.35300000      41.24900000 
H      25.75200000      18.93100000      41.41200000 
H      28.15200000      19.15800000      41.43200000 
H      27.52800000      19.58500000      42.98500000 
H      28.17500000      17.27700000      43.82000000 
H      28.91700000      16.98600000      42.26700000 
H      30.49500000      17.76600000      43.86400000 
H      30.35600000      18.88200000      42.69800000 
H      29.65500000      19.12200000      44.14400000 
N      24.32200000      15.30600000      37.74500000 
C      24.98300000      15.50700000      36.48600000 
C      24.35400000      14.59800000      35.42900000 
O      24.00700000      13.44200000      35.72200000 
C      26.50500000      15.21900000      36.65100000 
C      27.16300000      16.44000000      37.37000000 
C      27.22800000      14.87700000      35.34200000 
C      28.39000000      16.05900000      38.19700000 
H      24.32500000      14.36600000      38.12800000 
H      24.85200000      16.52900000      36.18900000 
H      26.58900000      14.34900000      37.31400000 
H      27.42900000      17.17400000      36.60100000 
H      26.43000000      16.90700000      38.01700000 
H      28.28600000      14.83600000      35.49300000 
H      26.89800000      13.92700000      34.94200000 
H      27.02600000      15.64400000      34.58500000 
H      28.83100000      16.95600000      38.64100000 
H      28.10200000      15.39400000      39.01800000 
H      29.15300000      15.57300000      37.61100000 
N      33.18200000      18.53400000      29.68300000 
C      32.39000000      19.37600000      30.56100000 
C      31.08300000      18.65300000      30.85500000 
O      30.62500000      17.81100000      30.07400000 
C      32.14700000      20.77100000      29.91200000 
C      31.33500000      20.71200000      28.63400000 
C      31.55100000      21.80500000      30.89200000 
H      32.69500000      17.91100000      29.03600000 
H      32.93000000      19.50600000      31.46300000 
H      33.16300000      21.12700000      29.65900000 
H      31.08800000      21.71900000      28.31100000 
H      31.88200000      20.22500000      27.83900000 
H      30.39000000      20.18400000      28.78100000 
H      31.63000000      22.78400000      30.45600000 
H      30.51300000      21.60200000      31.09900000 
H      32.09400000      21.81400000      31.84400000 
N      30.46200000      18.99400000      31.98900000 
C      29.22900000      18.38500000      32.46100000 
C      28.25000000      19.47600000      32.88100000 
O      28.63800000      20.47400000      33.46600000 
C      29.52800000      17.45400000      33.64000000 
H      30.90100000      19.64700000      32.60400000 
H      28.81100000      17.81700000      31.63700000 
H      28.60900000      16.99600000      34.00500000 
H      30.19300000      16.67300000      33.31500000 
H      29.98500000      18.00200000      34.44400000 
N      26.96300000      19.24600000      32.57800000 
C      25.86200000      20.11400000      32.96900000 
C      24.95700000      19.39400000      33.99200000 
O      24.94500000      18.17100000      34.07800000 
C      24.94800000      20.52700000      31.79000000 
C      25.50000000      21.39500000      30.67600000 
C      26.83800000      21.57000000      30.34200000 
C      24.56300000      22.06600000      29.89800000 
C      27.22900000      22.34400000      29.27900000 
C      24.91100000      22.84700000      28.81700000 
C      26.27100000      22.98500000      28.51700000 
O      26.58000000      23.77100000      27.41000000 
H      26.72100000      18.40300000      32.08100000 
H      26.29000000      21.01400000      33.43600000 
H      24.55400000      19.61600000      31.36500000 
H      24.10900000      21.04800000      32.21700000 
H      27.61400000      21.08000000      30.91300000 
H      23.51000000      21.96000000      30.13000000 
H      28.27700000      22.47000000      29.02700000 
H      24.18300000      23.35900000      28.22400000 
H      27.49600000      23.91900000      27.27100000 
N      24.14200000      20.19000000      34.72000000 
C      23.21200000      19.59200000      35.67200000 
C      22.58500000      20.65700000      36.53600000 
O      22.25900000      21.76800000      36.09200000 
H      24.18900000      21.17300000      34.63700000 
H      22.39300000      19.11700000      35.13600000 
H      23.69900000      18.85500000      36.25600000 
N      22.35400000      20.27900000      37.82700000 
C      21.73000000      21.17100000      38.78200000 
C      22.36600000      20.92200000      40.14000000 
O      22.83000000      19.81300000      40.45300000 
C      20.19600000      21.02300000      38.84800000 
C      19.64100000      19.60500000      38.90600000 
C      18.13300000      19.68700000      39.17700000 
N      17.33500000      18.55800000      38.67300000 
C      16.87900000      17.54500000      39.36100000 
N      15.95000000      16.72100000      38.84600000 
N      17.31900000      17.26900000      40.60100000 
H      22.66100000      19.40600000      38.13400000 
H      21.93700000      22.18500000      38.49300000 
H      19.81900000      21.60500000      39.66200000 
H      19.79800000      21.48500000      37.92300000 
H      19.78500000      19.11000000      37.94800000 
H      20.12100000      18.99800000      39.65700000 
H      17.95300000      19.79900000      40.23900000 
H      17.70700000      20.57600000      38.70600000 
H      17.01200000      18.65200000      37.73100000 
H      15.59300000      16.85600000      37.92600000 
H      15.64700000      15.92300000      39.31300000 
H      18.05600000      17.81400000      41.00500000 
H      16.89900000      16.58200000      41.16100000 
N      22.39600000      21.96700000      40.96500000 
C      23.00700000      21.92800000      42.27800000 
C      22.07400000      22.67800000      43.23300000 
O      21.73500000      23.86000000      42.96500000 
C      24.43500000      22.51600000      42.24300000 
C      25.22000000      22.19400000      43.51000000 
C      26.67100000      22.62100000      43.47700000 
O      27.48600000      22.05900000      44.28000000 
N      27.04800000      23.57200000      42.65300000 
H      22.05200000      22.86300000      40.66000000 
H      23.05800000      20.89000000      42.58100000 
H      24.91600000      22.09600000      41.38900000 
H      24.34700000      23.58200000      42.09200000 
H      24.78000000      22.67200000      44.38500000 
H      25.20700000      21.11800000      43.70100000 
H      26.44300000      24.03200000      42.03900000 
H      28.02100000      23.86800000      42.66800000 
N      21.46000000      26.36300000      41.18800000 
C      22.28900000      26.67400000      40.03200000 
C      21.63500000      26.19000000      38.73300000 
O      21.95400000      26.70600000      37.67800000 
C      23.71200000      26.06800000      40.23800000 
C      24.81800000      26.58500000      39.31500000 
C      24.96600000      28.11100000      39.31800000 
C      26.16600000      25.94100000      39.71900000 
H      21.68000000      25.58500000      41.77600000 
H      22.36000000      27.73000000      39.94100000 
H      23.98600000      26.32100000      41.27200000 
H      23.66300000      24.99200000      40.17800000 
H      24.59500000      26.26600000      38.28400000 
H      25.79700000      28.41400000      38.68700000 
H      24.08000000      28.61700000      38.94700000 
H      25.17300000      28.47800000      40.32500000 
H      26.94800000      26.23100000      39.04200000 
H      26.44200000      26.27100000      40.73300000 
H      26.08800000      24.86000000      39.72500000 
N      22.49700000      23.61200000      33.20100000 
C      23.38100000      24.74000000      33.50100000 
C      24.74500000      24.15600000      33.79000000 
O      24.85300000      23.10200000      34.43200000 
C      22.80200000      25.56400000      34.67400000 
C      22.73900000      27.11300000      34.59900000 
C      24.00100000      27.82500000      35.13600000 
C      22.30900000      27.64800000      33.24400000 
H      22.56100000      22.84200000      33.87500000 
H      23.39700000      25.34500000      32.56700000 
H      21.77100000      25.22000000      34.76100000 
H      23.29200000      25.26400000      35.59300000 
H      21.95400000      27.36100000      35.29700000 
H      23.84300000      28.89000000      35.13300000 
H      24.20700000      27.50900000      36.15300000 
H      24.86800000      27.61500000      34.52700000 
H      22.10100000      28.73100000      33.31400000 
H      23.09300000      27.52700000      32.48300000 
H      21.40900000      27.16000000      32.87700000 
N      25.88300000      24.80000000      33.36500000 
C      27.20500000      24.21900000      33.63300000 
C      27.49100000      23.97700000      35.11800000 
O      27.23600000      24.80700000      35.94900000 
C      28.15500000      25.31300000      33.10500000 
C      27.37500000      25.95600000      31.97300000 
C      25.93800000      25.94500000      32.44400000 
H      27.31700000      23.31000000      33.06700000 
H      28.36000000      26.02900000      33.88300000 
H      29.10500000      24.88700000      32.77600000 
H      27.70500000      26.95900000      31.74900000 
H      27.47200000      25.37800000      31.06400000 
H      25.66000000      26.84900000      32.94000000 
H      25.23700000      25.78700000      31.61500000 
N      28.16500000      22.82000000      35.33500000 
C      28.65700000      22.49300000      36.68300000 
C      30.19200000      22.42100000      36.58300000 
O      30.83700000      23.49300000      36.59600000 
C      27.98200000      21.23700000      37.28900000 
C      26.45100000      21.30200000      37.21700000 
C      28.45100000      21.01600000      38.74700000 
C      25.76500000      22.36800000      38.08900000 
H      28.27600000      22.14300000      34.63700000 
H      28.45800000      23.32900000      37.31900000 
H      28.26700000      20.36600000      36.69200000 
H      26.15800000      21.45600000      36.18200000 
H      26.06800000      20.32100000      37.48900000 
H      27.93200000      20.15400000      39.16100000 
H      29.52400000      20.80300000      38.79400000 
H      28.24800000      21.86700000      39.34600000 
H      24.69900000      22.36900000      37.89400000 
H      25.91600000      22.16600000      39.13800000 
H      26.14300000      23.35300000      37.86400000 
N      30.82300000      21.25300000      36.48600000 
C      32.25600000      21.14000000      36.53700000 
C      32.92000000      21.57000000      35.21600000 
O      32.37400000      21.40100000      34.13400000 
C      32.69200000      19.70600000      36.84900000 
O      32.72600000      19.59400000      38.27800000 
H      30.28400000      20.40800000      36.38600000 
H      32.62100000      21.77900000      37.32600000 
H      31.98100000      18.99500000      36.44700000 
H      33.65200000      19.50000000      36.44700000 
H      33.21100000      18.80400000      38.57900000 
N      34.15300000      22.07400000      35.39300000 
C      35.07100000      22.36600000      34.27500000 
C      36.36600000      21.58900000      34.54000000 
O      36.77300000      21.35900000      35.68400000 
C      35.39700000      23.87500000      34.21200000 
C      34.27800000      24.74700000      33.69000000 
C      34.11600000      24.92400000      32.29100000 
C      33.42900000      25.44100000      34.53000000 
C      33.15300000      25.78400000      31.81900000 
C      32.45500000      26.30500000      34.05400000 
C      32.34700000      26.47900000      32.66300000 
O      31.40100000      27.38500000      32.23100000 
H      34.52600000      22.18100000      36.29300000 
H      34.62800000      22.03700000      33.36800000 
H      35.67100000      24.21800000      35.20600000 
H      36.27500000      24.00600000      33.58000000 
H      34.75900000      24.40400000      31.62200000 
H      33.54600000      25.33000000      35.59600000 
H      33.05100000      25.92800000      30.73100000 
H      31.82000000      26.84600000      34.71000000 
H      31.56600000      27.71900000      31.34100000 
N      39.62100000      21.74800000      37.69500000 
C      39.21000000      22.98000000      38.34100000 
C      37.78200000      22.82400000      38.86300000 
O      37.41200000      21.70200000      39.25000000 
C      39.49700000      24.21000000      37.45400000 
C      38.69300000      24.23500000      36.15200000 
C      38.88500000      25.48900000      35.35800000 
O      39.33400000      25.46500000      34.19400000 
N      38.50900000      26.67400000      35.89700000 
H      39.21300000      21.53200000      36.81800000 
H      39.82400000      23.07600000      39.23900000 
H      39.33000000      25.09100000      38.04200000 
H      40.56500000      24.18500000      37.23300000 
H      38.96200000      23.42600000      35.52000000 
H      37.63300000      24.14900000      36.38000000 
H      38.20600000      26.73400000      36.87000000 
H      38.60500000      27.49600000      35.38800000 
N      36.98900000      23.89300000      38.95900000 
C      35.66000000      23.75500000      39.58300000 
C      34.76800000      24.86700000      39.04500000 
O      35.11700000      25.64300000      38.19600000 
C      35.78300000      23.72800000      41.13600000 
C      35.12500000      22.53600000      41.80100000 
O      34.21200000      22.72300000      42.64800000 
N      35.56800000      21.32000000      41.47200000 
H      37.28000000      24.79600000      38.70600000 
H      35.24800000      22.82900000      39.22600000 
H      36.82100000      23.70200000      41.38100000 
H      35.37600000      24.61500000      41.56900000 
H      35.18100000      20.53500000      41.90300000 
H      36.27200000      21.22200000      40.77700000 
N      33.52000000      24.89800000      39.59800000 
C      32.48300000      25.80900000      39.16600000 
C      32.51400000      27.19100000      39.87300000 
O      31.74300000      28.05200000      39.50700000 
C      31.12700000      25.17300000      39.41000000 
O      31.08200000      24.84300000      40.79900000 
H      33.25600000      24.24700000      40.29800000 
H      32.59200000      26.01600000      38.10000000 
H      30.34000000      25.85100000      39.13900000 
H      31.05000000      24.27200000      38.81000000 
H      30.23800000      24.47000000      41.08200000 
N      33.39600000      27.29500000      40.88100000 
C      33.38400000      28.39500000      41.83100000 
C      34.77100000      29.04200000      41.82700000 
O      35.76000000      28.36400000      42.18900000 
C      33.01300000      27.82300000      43.22100000 
O      31.64200000      27.40400000      43.07500000 
C      33.12600000      28.80300000      44.35200000 
H      33.95600000      26.53300000      41.11000000 
H      32.63800000      29.10300000      41.54400000 
H      33.63300000      26.95800000      43.39400000 
H      31.40200000      26.70100000      43.67900000 
H      32.82500000      28.31200000      45.28800000 
H      34.13100000      29.17300000      44.48300000 
H      32.44500000      29.63100000      44.18500000 
N      34.83000000      30.29900000      41.39300000 
C      36.07700000      31.03100000      41.26700000 
C      36.42200000      31.79300000      42.56000000 
O      35.68400000      31.72700000      43.56800000 
C      36.00300000      31.98000000      40.04800000 
C      34.92300000      33.05600000      40.11800000 
O      35.21100000      34.20100000      39.75000000 
O      33.76000000      32.65700000      40.48500000 
H      34.02000000      30.79800000      41.14800000 
H      36.86600000      30.33600000      41.12200000 
H      36.95700000      32.45900000      39.90400000 
H      35.82500000      31.36800000      39.18100000 
H      36.16685930      32.02881994      48.46071637 
H      31.86261633      26.76136111      50.00129519 
H      40.89810000      31.27069164      38.48094457 
H      39.45869623      31.86930682      36.75962341 
H      23.79054714      17.85948796      44.94516133 
H      23.33826226      16.69089969      41.12188896 
H      24.70916796      15.82121722      38.37321349 
H      24.22029214      14.93355510      34.49651677 
H      33.70015049      19.05026719      29.15860677 
H      21.73956653      22.22828767      44.06119869 
H      21.45801673      27.06323800      41.75338731 
H      20.95429846      25.45788351      38.75851190 
H      21.64190490      23.89272740      33.19887942 
H      36.91144550      21.24997691      33.77348023 
H      40.50818255      21.76885436      37.54509261 
H      37.24895095      32.35350771      42.60453344 
