 148 
 
N                55.0809252169       51.3885285150       48.0762151676
C                55.6403715744       52.1921226200       47.0146653170
C                56.2145692785       53.4430593358       47.6809091121
O                55.6667393268       53.9609796753       48.6433067474
C                54.5667674650       52.6462699236       45.9904180684
C                53.8821909125       51.4328370724       45.3476150594
C                55.1939439697       53.5395883973       44.9201749726
C                52.5817610005       51.8118839527       44.6467148005
H                54.6420235408       51.9325756685       48.8082013092
H                56.4060281025       51.5952975569       46.5100315951
H                53.8205121614       53.2262991481       46.5465179897
H                54.5695811556       50.9753170464       44.6333517369
H                53.6573349396       50.6967322627       46.1212193173
H                54.4567447042       53.7750202827       44.1579848404
H                55.5352578812       54.4826414797       45.3405750017
H                56.0313672100       53.0354481101       44.4426691816
H                52.0885870410       50.9257352943       44.2571943684
H                51.9119429281       52.3119036816       45.3450284730
H                52.7615110960       52.4899335872       43.8165780306
N                57.3343706641       53.9268848414       47.1274980323
C                57.7761038337       55.2902593653       47.3188340808
C                58.7054038574       55.6070997859       46.1485640293
O                59.2716856438       54.7202403659       45.5266211529
C                58.4638938094       55.5298927337       48.6782697683
C                59.8905293652       54.9724595141       48.8040382500
C                60.8391430615       56.0059051120       49.4236359678
C                61.1673444928       57.1034294037       48.4122631799
N                61.6818233790       58.3379371291       49.0559331503
H                57.7884264336       53.4481801141       46.3589232768
H                56.8916492537       55.9416425917       47.2856308570
H                58.4597727810       56.6067559617       48.8451704790
H                57.8141988813       55.0835575940       49.4314103650
H                59.8780642869       54.0775848464       49.4249999170
H                60.2681333843       54.6794132846       47.8247579776
H                60.3541697377       56.4319021077       50.3032256636
H                61.7526826637       55.5073664186       49.7432054454
H                61.9121275249       56.7472382158       47.7012551651
H                60.2707413701       57.3750125926       47.8557045957
H                61.7098245583       59.1165577716       48.3579929867
H                61.0572589464       58.6352146273       49.8159350789
H                62.6343834479       58.2103194624       49.4407877990
N                58.9046776058       56.9081804481       45.9182226834
C                59.8275888436       57.3944004111       44.9141653157
C                60.0390176845       58.8806876905       45.2035183646
O                59.2068108343       59.5395573611       45.8078805487
C                59.3125837424       57.1712870240       43.4811820951
C                57.9800083768       57.8537464258       43.2060115103
C                58.0842631521       59.4067694345       43.0700469991
O                57.0302671232       60.0454113964       43.2686753159
O                59.1912147755       59.8800436191       42.7436566712
H                58.3183541298       57.6309093244       46.3188553358
H                60.7676534951       56.8406691424       45.0269948086
H                60.0439480516       57.5647818673       42.7729066925
H                59.2180435717       56.0941873068       43.3299399230
H                57.5788283532       57.5018965344       42.2513208725
H                57.2362291779       57.6317271551       43.9730717013
N                61.2519817091       59.3419684881       44.8578160690
C                61.5374938611       60.7581806874       44.9244624300
C                61.5743261731       61.2190455966       46.3786723318
O                61.5905704642       60.4408151862       47.3184365807
H                61.8409924470       58.7704373100       44.2731477077
H                62.5044233592       60.9456809995       44.4585607957
H                60.7614743912       61.3079004336       44.3794740220
N                61.6103794847       62.5497243826       46.5534572066
C                61.6775430405       63.1440346745       47.8802664317
C                61.0809803528       64.5624688021       47.8484946434
O                61.7085908354       65.5431346794       48.1935835626
C                63.1035419948       63.1990253468       48.4351163525
C                63.0514758377       63.3426496510       49.9514996808
O                62.1326128353       62.8907892708       50.6183610940
N                64.1124117697       63.9521513275       50.4930902601
H                61.6776306742       63.1623652301       45.7541876706
H                61.0853624897       62.5174629721       48.5608483412
H                63.6139369589       62.2616004704       48.2074758056
H                63.6423599496       64.0393605135       48.0000143984
H                64.1553246191       64.0716009312       51.4932016518
H                64.8249527558       64.3769732345       49.9259431366
N                59.8239331155       64.5832550046       47.3687835567
C                59.1286144309       65.8134237366       47.0318651188
C                57.6039098952       65.6703540266       47.0346023992
O                56.8876078456       66.5211206734       47.5430182541
C                59.6265598888       66.3050944749       45.6543199561
C                58.9647721265       67.6014978601       45.2005490949
C                59.5180971313       68.8236019013       45.9198232843
O                60.4187817994       68.7850056812       46.7419357428
N                58.9397773876       69.9756305720       45.5369245413
H                59.3897961400       63.6914487118       47.1816235085
H                59.3912502101       66.5704941301       47.7812267779
H                60.6986266876       66.4839969747       45.7606079719
H                59.4686987968       65.5235542309       44.9084265018
H                59.1326588952       67.7419245327       44.1315117111
H                57.8903303785       67.5629256993       45.3824722941
H                58.1717302103       69.9879415992       44.8882770863
H                59.2096666460       70.8341114797       45.9853810210
N                63.6061571269       57.8790719042       54.5306748001
C                64.4312503115       58.0713624210       53.3557493846
C                65.4405166967       59.1843256633       53.6259426838
O                65.1441860857       60.1592891076       54.3043974662
C                63.5182359645       58.4541249738       52.1761934981
C                64.3140874496       58.7289209585       50.9289964308
C                64.7209128143       57.6826468269       50.0995838152
C                64.6795719560       60.0281510933       50.5937003994
C                65.4624092791       57.9259819927       48.9587188408
C                65.4185700245       60.2839376046       49.4539455386
C                65.8140130535       59.2342871737       48.6306101985
O                66.5191750797       59.4360182400       47.4903376338
H                63.1722318636       58.7237137235       54.8870524523
H                64.9640071384       57.1390474319       53.1506282864
H                62.8299503876       57.6204367554       52.0297139454
H                62.9598918046       59.3426782210       52.4759430674
H                64.4819363439       56.6651132208       50.3704452733
H                64.3850767722       60.8449601514       51.2341312389
H                65.7899975968       57.1113724116       48.3309039047
H                65.7235291936       61.2933344064       49.2187082938
H                66.7221158174       60.3736755427       47.3653696480
N                66.6001597368       59.0362031848       52.9814644060
C                67.7352496587       59.8659008321       53.2961236499
C                68.1523955353       60.6704424879       52.0740245082
O                68.0807607377       60.2249299828       50.9340871015
C                68.9225839725       58.9997928578       53.7129214801
C                68.5036098139       57.8773810075       54.7383650575
O                67.6396202182       58.1673874298       55.5818835801
O                69.1133308804       56.8011750896       54.6025566063
H                66.8115888845       58.1564690831       52.5210525055
H                67.4396104369       60.5208580372       54.1220881026
H                69.3421453904       58.4906577241       52.8434167052
H                69.6949010098       59.6089900804       54.1847545293
N                68.7153789783       61.8447801665       52.3751605504
C                69.2217724459       62.7862862146       51.3970201269
C                69.8994906139       62.0923942371       50.2088118283
O                69.7619551512       62.4957578377       49.0679934510
C                70.2519298258       63.7158202727       52.0625167785
C                69.8556603844       64.1956777172       53.4262130425
N                68.5716459265       64.1769925456       53.9003662983
C                70.6820423626       64.7165878741       54.3861229930
C                68.6255739595       64.6864219048       55.1037742145
N                69.8822846093       65.0329866604       55.4460559145
H                68.5234174308       62.2789045918       53.2740964840
H                68.3979100171       63.3890749400       50.9998225377
H                71.2083989238       63.1981691743       52.1536652535
H                70.4013349772       64.5723521043       51.4009011464
H                71.7384525509       64.8782074119       54.3945061296
H                67.7822683677       64.8119758186       55.7514804130
H                70.1826143864       65.4398130012       56.3180603979
H                54.4539904128       50.8384157391       47.7380899168
H                57.1760911181       64.8696737878       46.6152192221
H                62.9395216952       57.3055919685       54.3390554780
H                70.4720349305       61.2866684398       50.3604658586
