433
Properties=species:S:1:pos:R:3 pbc="F F F"
N      31.78700000      26.81800000      50.34700000 
C      30.42300000      26.58400000      50.78300000 
C      29.90400000      27.65600000      51.72700000 
O      28.66500000      27.63100000      51.98400000 
C      30.10700000      25.16700000      51.38200000 
C      31.31100000      24.23300000      51.67700000 
C      31.25200000      23.71900000      53.15100000 
C      31.30700000      23.02800000      50.70900000 
H      32.49800000      26.85400000      51.02400000 
H      29.80500000      26.70500000      49.89900000 
H      29.53500000      25.32300000      52.29900000 
H      29.43100000      24.68100000      50.70500000 
H      32.23100000      24.76400000      51.56200000 
H      32.08600000      23.06600000      53.34000000 
H      31.30700000      24.55000000      53.83400000 
H      30.33700000      23.17700000      53.33500000 
H      32.15900000      22.40000000      50.88900000 
H      30.41300000      22.45400000      50.80300000 
H      31.37500000      23.39500000      49.67400000 
N      30.66500000      28.56600000      52.30700000 
C      30.20800000      29.42300000      53.36800000 
C      29.67800000      30.79800000      52.89000000 
O      28.65300000      31.24800000      53.37600000 
C      31.25300000      29.62600000      54.44900000 
O      31.42400000      28.36600000      55.06300000 
H      31.66600000      28.58200000      52.08200000 
H      29.34200000      28.95100000      53.81000000 
H      32.17500000      29.98600000      54.01700000 
H      30.89500000      30.36300000      55.15700000 
H      32.12900000      28.37300000      55.74200000 
N      23.17600000      14.83600000      53.82400000 
C      22.39200000      15.69300000      54.72300000 
C      23.09400000      15.67800000      56.06400000 
O      23.39100000      14.58900000      56.58100000 
C      20.93700000      15.18900000      54.82900000 
C      19.96300000      16.26500000      55.31700000 
C      18.84200000      15.69000000      56.17400000 
C      17.78400000      16.73000000      56.49700000 
N      16.87300000      16.23400000      57.59100000 
H      23.45300000      13.95400000      54.15200000 
H      22.39500000      16.68900000      54.29800000 
H      20.63400000      14.83700000      53.85000000 
H      20.92200000      14.31700000      55.47400000 
H      20.49100000      17.01300000      55.90200000 
H      19.54800000      16.78000000      54.46200000 
H      18.37400000      14.83800000      55.67400000 
H      19.27400000      15.30200000      57.11100000 
H      18.22300000      17.64600000      56.87000000 
H      17.16800000      16.95700000      55.64700000 
H      16.16700000      16.93000000      57.82000000 
H      16.36600000      15.40100000      57.30400000 
H      17.36400000      16.02400000      58.42000000 
N      23.41300000      16.85100000      56.59500000 
C      24.23800000      16.98100000      57.78100000 
C      23.60700000      18.05300000      58.64600000 
O      23.58300000      19.24500000      58.31500000 
C      25.74200000      17.19900000      57.44200000 
C      26.53400000      17.63200000      58.69700000 
C      25.97500000      18.14200000      56.24600000 
C      28.06200000      17.55000000      58.52100000 
H      23.16000000      17.69700000      56.11900000 
H      24.17800000      16.02600000      58.31500000 
H      26.10000000      16.22500000      57.15300000 
H      26.25700000      18.66100000      58.95600000 
H      26.23500000      17.00600000      59.53600000 
H      27.01700000      18.15900000      55.99200000 
H      25.43800000      17.81400000      55.38100000 
H      25.67000000      19.15900000      56.47800000 
H      28.55100000      17.78200000      59.45400000 
H      28.34900000      16.55400000      58.21800000 
H      28.41200000      18.25500000      57.77200000 
N      23.01900000      17.61600000      59.78500000 
C      22.27400000      18.48000000      60.66500000 
C      22.86900000      18.37400000      62.07900000 
O      23.45700000      17.36800000      62.44800000 
C      20.77300000      18.16900000      60.64500000 
O      20.59400000      16.91500000      61.30300000 
C      20.22300000      18.12600000      59.23400000 
H      23.07100000      16.65900000      60.04100000 
H      22.41900000      19.49200000      60.32900000 
H      20.27000000      18.95400000      61.22300000 
H      19.70500000      16.61000000      61.27700000 
H      19.13300000      18.08800000      59.26400000 
H      20.51200000      18.99700000      58.65800000 
H      20.58800000      17.24900000      58.72000000 
N      21.11800000      24.01900000      63.55100000 
C      21.86500000      24.21500000      62.30300000 
C      21.50500000      23.07000000      61.36900000 
O      21.54300000      21.88800000      61.81400000 
C      23.40300000      24.27200000      62.57300000 
C      23.72800000      25.48800000      63.44500000 
C      24.19200000      24.25700000      61.25100000 
C      25.23900000      25.74700000      63.66100000 
H      21.32300000      23.19600000      64.07500000 
H      21.55400000      25.13700000      61.87400000 
H      23.65800000      23.35900000      63.14000000 
H      23.29700000      26.37600000      62.98400000 
H      23.25100000      25.37500000      64.40700000 
H      25.25900000      24.24300000      61.46600000 
H      23.98100000      23.36900000      60.66300000 
H      23.97700000      25.13000000      60.65900000 
H      25.37000000      26.50700000      64.42900000 
H      25.74800000      24.84100000      63.98500000 
H      25.70800000      26.10300000      62.75700000 
N      21.21300000      23.32800000      60.11000000 
C      20.96500000      22.24800000      59.15700000 
C      21.52500000      22.64000000      57.79600000 
O      21.35500000      23.77600000      57.35900000 
C      19.46700000      21.84000000      59.12800000 
C      18.61500000      22.42700000      57.98300000 
C      17.20700000      21.92300000      57.89700000 
O      16.69700000      21.67300000      56.81000000 
N      16.52800000      21.76100000      59.04200000 
H      21.10900000      24.27500000      59.79500000 
H      21.50400000      21.40500000      59.53400000 
H      19.40200000      20.75900000      59.06200000 
H      19.05000000      22.11400000      60.07900000 
H      18.58800000      23.51100000      58.05700000 
H      19.06800000      22.20000000      57.03400000 
H      16.88600000      21.96400000      59.93200000 
H      15.58000000      21.44300000      59.00200000 
N      22.18800000      21.67500000      57.13600000 
C      22.78400000      21.85600000      55.81500000 
C      22.33100000      20.71800000      54.91400000 
O      22.44000000      19.52000000      55.30100000 
C      24.34000000      21.86700000      55.91300000 
C      24.82200000      23.04000000      56.80200000 
C      24.98100000      21.93300000      54.51100000 
C      26.34100000      23.09000000      56.99300000 
H      22.40600000      20.80300000      57.60200000 
H      22.43500000      22.79300000      55.42200000 
H      24.63200000      20.94200000      56.38100000 
H      24.46500000      23.96800000      56.37700000 
H      24.35700000      22.93000000      57.77400000 
H      26.05700000      21.91000000      54.58300000 
H      24.68300000      21.07400000      53.89200000 
H      24.68700000      22.83900000      53.98200000 
H      26.58900000      23.83200000      57.74300000 
H      26.73700000      22.14100000      57.30700000 
H      26.84800000      23.38600000      56.07400000 
N      21.86600000      21.04200000      53.72300000 
C      21.38800000      20.03800000      52.76500000 
C      22.16500000      20.25900000      51.44700000 
O      22.22400000      21.37800000      50.93600000 
C      19.84800000      20.16300000      52.52100000 
C      19.34500000      18.99800000      51.67800000 
C      19.11200000      20.23200000      53.86200000 
H      21.73300000      22.00000000      53.47300000 
H      21.60800000      19.08100000      53.16100000 
H      19.67700000      21.08800000      51.98100000 
H      18.28500000      19.05400000      51.56400000 
H      19.79400000      18.96700000      50.68800000 
H      19.57700000      18.03100000      52.17700000 
H      18.03700000      20.22000000      53.67700000 
H      19.34700000      19.38000000      54.48800000 
H      19.33900000      21.13200000      54.40700000 
N      22.78300000      19.16900000      50.93900000 
C      23.68000000      19.27400000      49.79400000 
C      23.20800000      18.30500000      48.71400000 
O      23.11600000      17.07200000      48.99800000 
C      25.13300000      18.87400000      50.24000000 
C      26.21000000      19.63500000      49.55800000 
O      26.94800000      20.44700000      50.19600000 
N      26.40100000      19.46900000      48.21400000 
H      22.73100000      18.29500000      51.39700000 
H      23.65200000      20.28300000      49.41600000 
H      25.21400000      19.10400000      51.28800000 
H      25.28000000      17.83600000      50.10000000 
H      27.09200000      19.96700000      47.75400000 
H      25.86900000      18.80400000      47.70700000 
N      21.66300000      22.00800000      44.27900000 
C      20.66200000      22.42300000      45.23500000 
C      21.34300000      22.58800000      46.57700000 
O      21.86100000      21.60700000      47.14000000 
C      19.55900000      21.33700000      45.28700000 
C      18.55500000      21.56900000      46.42700000 
C      18.81300000      21.20600000      43.95100000 
H      22.03200000      21.06800000      44.43200000 
H      20.24800000      23.37000000      44.89900000 
H      20.07600000      20.41700000      45.48600000 
H      17.79700000      20.80000000      46.41000000 
H      19.03700000      21.52500000      47.41200000 
H      18.06400000      22.52700000      46.34200000 
H      18.27900000      20.25500000      43.94200000 
H      18.10800000      21.98900000      43.81500000 
H      19.50000000      21.19000000      43.11900000 
N      21.36500000      23.78700000      47.12100000 
C      21.86700000      24.08400000      48.44500000 
C      20.75500000      24.70400000      49.28200000 
O      19.99500000      25.54200000      48.77800000 
C      23.04000000      25.10100000      48.45200000 
C      24.36700000      24.56100000      47.94600000 
C      25.12800000      23.71600000      48.75200000 
C      24.87300000      24.92900000      46.71500000 
C      26.33600000      23.24500000      48.34300000 
C      26.11300000      24.47200000      46.30400000 
C      26.85200000      23.60200000      47.10600000 
O      28.08000000      23.12100000      46.71600000 
H      20.95200000      24.58000000      46.61900000 
H      22.19800000      23.15000000      48.89300000 
H      22.74000000      25.95500000      47.82400000 
H      23.16400000      25.47400000      49.44500000 
H      24.75000000      23.42200000      49.73300000 
H      24.32300000      25.57600000      46.08500000 
H      26.92600000      22.56900000      48.95900000 
H      26.51900000      24.79000000      45.34600000 
H      28.08300000      22.79100000      45.80100000 
N      20.71200000      24.35300000      50.57600000 
C      19.85400000      25.04700000      51.52500000 
C      20.59000000      24.99300000      52.87300000 
O      21.05200000      23.92200000      53.28600000 
C      18.47400000      24.33800000      51.64100000 
C      17.50900000      24.89700000      52.70000000 
C      17.05100000      26.33800000      52.35500000 
C      16.28200000      23.98300000      52.79300000 
H      21.25600000      23.58900000      50.89400000 
H      19.73500000      26.05100000      51.20500000 
H      18.02400000      24.39000000      50.65900000 
H      18.67100000      23.28500000      51.86800000 
H      17.98800000      24.92400000      53.65500000 
H      16.33300000      26.68500000      53.09100000 
H      17.86500000      27.03000000      52.33000000 
H      16.55700000      26.35800000      51.37200000 
H      15.61400000      24.30400000      53.56800000 
H      15.73600000      23.96900000      51.85500000 
H      16.58400000      22.95800000      53.01500000 
N      20.68000000      26.14200000      53.53100000 
C      21.34700000      26.23600000      54.83100000 
C      20.56000000      27.18700000      55.68800000 
O      20.28500000      28.35900000      55.22900000 
C      22.80300000      26.63500000      54.64000000 
C      23.64200000      26.71400000      55.94300000 
C      24.05400000      28.12100000      56.42000000 
C      25.50800000      28.46300000      56.12600000 
N      25.82000000      28.51400000      54.66900000 
H      20.40000000      26.99900000      53.11900000 
H      21.31300000      25.25100000      55.28600000 
H      23.24200000      25.93300000      53.97100000 
H      22.83000000      27.60000000      54.12600000 
H      23.09100000      26.22400000      56.73900000 
H      24.53500000      26.11400000      55.81700000 
H      23.41700000      28.87200000      55.99000000 
H      23.93400000      28.19900000      57.48600000 
H      25.77400000      29.43800000      56.52500000 
H      26.17600000      27.72800000      56.55900000 
H      26.77900000      28.76700000      54.49200000 
H      25.67300000      27.61600000      54.21100000 
H      25.24000000      29.17900000      54.18500000 
N      20.18100000      26.80800000      56.90000000 
C      19.42100000      27.68300000      57.77700000 
C      19.93900000      27.49900000      59.19900000 
O      20.42000000      26.39700000      59.55700000 
C      17.89700000      27.49300000      57.65900000 
C      17.21000000      26.37400000      58.45900000 
C      16.57000000      26.93900000      59.74300000 
C      16.15700000      25.66200000      57.61600000 
H      20.42000000      25.89000000      57.22000000 
H      19.66000000      28.70400000      57.47900000 
H      17.43300000      28.45800000      57.89200000 
H      17.72700000      27.34700000      56.59100000 
H      17.97000000      25.64500000      58.75200000 
H      16.14300000      26.13300000      60.33900000 
H      17.27100000      27.46700000      60.35900000 
H      15.76100000      27.62100000      59.48400000 
H      15.65000000      24.89800000      58.19800000 
H      15.41000000      26.36100000      57.25500000 
H      16.60600000      25.17500000      56.75100000 
N      19.85100000      28.54600000      60.01200000 
C      20.13900000      28.39600000      61.43500000 
C      19.21900000      29.28300000      62.22400000 
O      18.84900000      30.39400000      61.80600000 
C      21.62400000      28.61100000      61.77800000 
C      22.19600000      30.01200000      61.54000000 
C      23.68100000      30.05800000      61.89700000 
O      24.06900000      30.99700000      62.65600000 
O      24.42000000      29.16300000      61.39700000 
H      19.47900000      29.40100000      59.67000000 
H      19.91900000      27.37300000      61.68400000 
H      21.73900000      28.36100000      62.81900000 
H      22.18900000      27.90300000      61.23300000 
H      22.08500000      30.27200000      60.49800000 
H      21.67400000      30.75800000      62.12400000 
N      18.03200000      32.72800000      60.08600000 
C      18.66500000      32.98500000      58.80500000 
C      18.35800000      31.85500000      57.87400000 
O      18.46000000      30.66500000      58.27600000 
C      20.19900000      33.11100000      58.98700000 
C      20.99000000      33.18900000      57.70100000 
C      22.49000000      33.34300000      57.90800000 
O      23.24800000      32.61400000      57.18700000 
O      22.89800000      34.21500000      58.74200000 
H      18.18700000      31.81600000      60.51300000 
H      18.26200000      33.92400000      58.42400000 
H      20.38300000      33.98100000      59.60300000 
H      20.52200000      32.24600000      59.57400000 
H      20.83700000      32.34800000      57.08600000 
H      20.66100000      34.06600000      57.12300000 
N      18.08200000      32.15800000      56.59700000 
C      18.02300000      31.13400000      55.53700000 
C      18.69500000      31.70000000      54.32200000 
O      18.49900000      32.85100000      53.95700000 
C      16.55700000      30.65400000      55.26500000 
C      15.60900000      31.76200000      54.83800000 
C      16.53400000      29.49800000      54.27700000 
H      17.97600000      33.08700000      56.31400000 
H      18.57300000      30.28400000      55.89500000 
H      16.21900000      30.28700000      56.23800000 
H      14.59900000      31.38200000      54.77800000 
H      15.60100000      32.60500000      55.54300000 
H      15.87100000      32.16600000      53.85300000 
H      15.54600000      29.06900000      54.22900000 
H      16.80900000      29.80700000      53.28700000 
H      17.22100000      28.70200000      54.57800000 
N      19.50400000      30.86000000      53.63500000 
C      20.06800000      31.23200000      52.34200000 
C      20.12800000      29.97100000      51.49700000 
O      20.29300000      28.84300000      51.97400000 
C      21.39600000      31.96900000      52.44400000 
C      22.53300000      31.28100000      53.17900000 
C      23.84400000      32.10100000      53.18400000 
C      23.80200000      33.42900000      53.93200000 
N      24.72200000      33.44700000      55.12400000 
H      19.71600000      29.95800000      54.00700000 
H      19.35700000      31.90100000      51.88500000 
H      21.71800000      32.23200000      51.43200000 
H      21.18400000      32.91800000      52.92800000 
H      22.25200000      31.04500000      54.18300000 
H      22.75100000      30.32200000      52.69000000 
H      24.62900000      31.48300000      53.59600000 
H      24.13500000      32.28400000      52.16300000 
H      24.07200000      34.24100000      53.30500000 
H      22.81200000      33.64100000      54.32900000 
H      25.10700000      34.36700000      55.26700000 
H      24.21600000      33.16900000      55.99200000 
H      25.49300000      32.82700000      55.00400000 
N      19.98900000      30.18400000      50.16900000 
C      19.92300000      29.10900000      49.18700000 
C      20.37000000      29.66200000      47.86200000 
O      20.10100000      30.82900000      47.54600000 
C      18.49600000      28.57500000      49.04200000 
H      19.81600000      31.09000000      49.82000000 
H      20.58800000      28.30000000      49.50600000 
H      18.44600000      27.79100000      48.29700000 
H      18.15500000      28.16400000      49.98200000 
H      17.82900000      29.38100000      48.75400000 
N      20.97400000      28.81400000      47.00500000 
C      21.13800000      29.06200000      45.61200000 
C      20.66600000      27.81700000      44.87000000 
O      20.82700000      26.67000000      45.37800000 
C      22.57500000      29.47100000      45.15000000 
C      22.97100000      30.78100000      45.86000000 
C      23.61000000      28.37400000      45.39400000 
H      21.15400000      27.87500000      47.32900000 
H      20.46900000      29.87900000      45.34300000 
H      22.49800000      29.66600000      44.09600000 
H      23.92400000      31.11400000      45.45900000 
H      22.25100000      31.55400000      45.70400000 
H      23.09500000      30.62400000      46.91900000 
H      24.60200000      28.76800000      45.06200000 
H      23.70400000      28.13400000      46.43100000 
H      23.42200000      27.49400000      44.82400000 
N      11.98100000      25.34700000      47.01700000 
C      13.38600000      25.23300000      47.39500000 
C      13.95000000      26.54100000      47.89600000 
O      14.71100000      26.58400000      48.88300000 
C      14.20000000      24.68400000      46.20700000 
C      15.70700000      24.68400000      46.50000000 
C      13.71400000      23.25800000      45.84600000 
H      11.79600000      25.42700000      46.04500000 
H      13.46700000      24.55600000      48.23600000 
H      14.02100000      25.32900000      45.36600000 
H      16.22900000      24.17500000      45.69700000 
H      16.11600000      25.69500000      46.55400000 
H      15.94200000      24.17700000      47.41900000 
H      14.32600000      22.88600000      45.04900000 
H      13.83500000      22.58800000      46.70900000 
H      12.68900000      23.26800000      45.52800000 
N      13.63200000      27.65200000      47.20400000 
C      14.15500000      28.94400000      47.62000000 
C      13.65000000      29.29500000      49.00500000 
O      14.39400000      29.93400000      49.78500000 
C      13.85300000      30.01400000      46.52800000 
C      14.09100000      31.43900000      47.02000000 
C      14.67600000      29.73700000      45.28300000 
H      13.06800000      27.59100000      46.38300000 
H      15.23500000      28.88300000      47.72600000 
H      12.77600000      29.91900000      46.27400000 
H      13.93400000      32.13800000      46.21100000 
H      13.42800000      31.72400000      47.83600000 
H      15.11800000      31.55900000      47.37300000 
H      14.40900000      30.42100000      44.48500000 
H      15.74600000      29.88500000      45.49700000 
H      14.55400000      28.72600000      44.90700000 
N      12.22500000      26.79400000      51.44300000 
C      12.80300000      25.71700000      52.22400000 
C      11.88600000      25.29600000      53.37900000 
O      11.73600000      26.04300000      54.35300000 
H      11.73800000      26.50800000      50.59900000 
H      12.99500000      24.87500000      51.55900000 
H      13.73500000      26.03200000      52.66400000 
N      11.15100000      19.59100000      50.16700000 
C      12.19300000      20.29500000      49.47900000 
C      12.88400000      19.29200000      48.55900000 
O      12.70200000      19.34600000      47.30400000 
C      13.12000000      21.03200000      50.44800000 
C      14.02900000      22.04900000      49.79200000 
S      15.42300000      21.34100000      48.73600000 
C      16.81400000      21.19300000      49.97500000 
H      11.41100000      18.99100000      50.94600000 
H      11.71600000      21.02700000      48.82200000 
H      12.47800000      21.56500000      51.14500000 
H      13.69700000      20.32500000      51.05000000 
H      13.45900000      22.68700000      49.12800000 
H      14.50400000      22.68300000      50.53700000 
H      17.56500000      20.58700000      49.52000000 
H      17.19700000      22.17500000      50.19100000 
H      16.45000000      20.72700000      50.87600000 
H      32.03959335      26.16178620      49.78523488 
H      30.17497904      31.30912375      52.18874088 
H      22.70063811      14.66839701      53.07838595 
H      22.77880208      19.13791832      62.71797820 
H      21.27823852      24.70728464      64.10830411 
H      22.97791224      18.64574335      47.80243344 
H      21.31028681      22.01839771      43.45105961 
H      18.88287199      28.98597514      63.11775287 
H      18.32473566      33.32637912      60.69118448 
H      20.22613720      27.90430328      43.97618858 
H      11.53458164      24.61712415      47.29627027 
H      12.73200163      29.01698027      49.28781446 
H      11.62474577      27.23976837      51.94398445 
H      11.40947968      24.41751801      53.34439116 
H      10.56727223      20.18192086      50.51351758 
H      13.48224877      18.58955977      48.94458543 
