 390 
 
N                94.8416230512       58.7244273875      192.3634251946
C                95.0903311626       59.9544269283      191.6414430454
C                96.1580604494       59.7072670929      190.5709689680
O                96.0634769839       60.1810048625      189.4448474623
C                95.5244841981       61.1006026032      192.5528001850
C                95.4359802947       62.3829826063      191.7263509173
O                94.3644134829       62.8610048718      191.3975098022
N                96.6090872437       62.9341915776      191.3860762863
H                95.1005255240       58.6560447274      193.3392790236
H                94.1709551750       60.2428733574      191.1126161604
H                94.8209604594       61.1782688506      193.3826044008
H                96.5302060262       60.9273211166      192.9333735516
H                96.6033452606       63.7369401178      190.7760356631
H                97.4934244737       62.5065969329      191.6001172987
N                97.1843186415       58.9524005878      190.9671388175
C                98.2518453520       58.6309213144      190.0487712510
C                97.6783957867       57.9908829187      188.7850492837
O                98.0253163068       58.3848499265      187.6812902799
C                99.2960927460       57.7189189363      190.6960256577
O               100.4307593932       57.7197880081      189.8672264375
H                97.3337021837       58.7254623375      191.9516619512
H                98.7661995773       59.5457306869      189.7199421706
H                99.5315174774       58.1228184244      191.6897766892
H                98.8796297849       56.7078823813      190.7966301692
H               101.1409834507       57.2224628983      190.2915724283
N                96.7851794102       57.0173498892      188.9578919176
C                96.1650461711       56.3623751438      187.8143802988
C                95.7166289702       57.4283958346      186.8154898174
O                96.0508005670       57.4045965220      185.6363464105
C                95.0307019067       55.4712225284      188.3293026856
C                94.2222955876       54.7101389708      187.2671749297
C                93.2041383898       55.6017579182      186.5592345921
C                95.1199735687       54.0156909829      186.2453386904
H                96.6059353047       56.6187474034      189.8744240562
H                96.9187162114       55.7546922086      187.2961078080
H                95.4971580879       54.7435727631      188.9976071807
H                94.3506604182       56.0855282368      188.9223258562
H                93.6612909561       53.9409348669      187.8096844024
H                92.5434202035       54.9948155663      185.9449718621
H                92.6007476822       56.1461934867      187.2815376892
H                93.6998261016       56.3164840410      185.9081777024
H                94.5258937281       53.3664662082      185.6073968434
H                95.6107111644       54.7490867188      185.6095494406
H                95.8766671423       53.4117050863      186.7397783675
N                94.9333208902       58.3928356527      187.3156812709
C                94.4952429632       59.4843169630      186.4712802238
C                95.6983675308       60.1622397059      185.8063655687
O                95.7576348446       60.3604269504      184.5942365800
C                93.6936227275       60.5003932204      187.2889210880
O                93.3505729325       61.5676013044      186.4377105992
H                94.6829425575       58.3952969685      188.2948301246
H                93.8654745382       59.1008319468      185.6564287525
H                92.7992495583       59.9967886886      187.6790125806
H                94.3058732656       60.8469943849      188.1314757178
H                92.7575956453       62.1711544110      186.9026020721
N                96.6747159758       60.5245315175      186.6313849930
C                97.8440916736       61.1947749422      186.1126458008
C                98.6200631379       60.3539403055      185.0964975698
O                99.3662806797       60.9129750724      184.2898126976
C                98.7868202961       61.6412802272      187.2278537158
C                98.1842688345       62.6856420902      188.1789146233
C                99.2713799692       63.1480484214      189.1490485429
C                97.6229024163       63.8795869373      187.4083750881
H                96.6050440431       60.3588007009      187.6298524310
H                97.5039473946       62.0726957580      185.5486129487
H                99.0960749318       60.7552327264      187.7842224504
H                99.6695261759       62.0657709070      186.7454058020
H                97.3703283475       62.2224484833      188.7454618564
H                98.8808712625       63.9023698512      189.8260108677
H                99.6585359323       62.3133147676      189.7277159198
H               100.0954932661       63.5890391401      188.5951219666
H                97.4576633802       64.7278346690      188.0672663465
H                98.3271654483       64.1956867453      186.6421812024
H                96.6755251648       63.6285992201      186.9376986239
N                98.4609305989       59.0381559415      185.1203248889
C                99.1151381636       58.1941843519      184.1506586603
C                98.4711971945       58.3771668621      182.7802892187
O                99.1470408003       58.3229835696      181.7551526733
C                99.1011526194       56.7304008361      184.5865949744
C                99.9617995168       56.4555327161      185.8282528019
C                99.8272187402       54.9816432226      186.2055161695
C               101.4295193114       56.8031540602      185.5883823736
H                97.9112528862       58.5965383538      185.8465036638
H               100.1501879007       58.5379517782      184.0290248547
H                98.0653308898       56.4534448948      184.7896871179
H                99.4645115527       56.1240576677      183.7549374606
H                99.5911993133       57.0694061778      186.6537637078
H               100.3662195812       54.7758695350      187.1258360910
H                98.7826374080       54.7155359572      186.3485997624
H               100.2331458279       54.3534883378      185.4163006295
H               102.0357678174       56.4503395209      186.4175904374
H               101.7860479128       56.3356346894      184.6730752284
H               101.5615179805       57.8793516614      185.5142189733
N                97.1573953948       58.6189576899      182.7588167066
C                96.5478132276       59.0115104599      181.5075855414
C                97.0939963599       60.3831291571      181.0945147423
O                97.4373943683       60.6034899994      179.9363390856
C                95.0102309128       58.8993149787      181.5147172984
O                94.6722055319       58.3799110979      180.2448054489
C                94.2908079674       60.2107406411      181.8046138431
H                96.6307329278       58.7195061372      183.6187193790
H                96.8884083150       58.3094453360      180.7332582102
H                94.7510441171       58.1601863359      182.2920441768
H                93.7193170328       58.4592292100      180.1093601533
H                93.2152735801       60.0532926192      181.7730032220
H                94.5574055512       60.5667860604      182.7939632956
H                94.5574613589       60.9601025387      181.0627767298
N                97.2561606498       61.2805983620      182.0719557357
C                97.9177700979       62.5308517299      181.7615835423
C                99.2979315317       62.2765222544      181.1414849562
O                99.7587111116       63.0681110661      180.3262916590
C                98.0737756458       63.4261645805      182.9895945464
C                96.7354446300       64.0253775646      183.4488508769
C                96.3500923914       65.1408381825      182.4914984946
O                95.8638125339       64.9353168689      181.3915203407
N                96.6186359837       66.3800705770      182.9405992832
H                96.9152966733       61.0907172683      183.0066188300
H                97.3335423216       63.0667236864      180.9990144176
H                98.5359575393       62.8391954363      183.7829333922
H                98.7587879934       64.2324792415      182.7207836103
H                95.9605679537       63.2580796431      183.4352790811
H                96.8322054569       64.4183031255      184.4601160534
H                97.0722477526       66.5365143127      183.8234327514
H                96.4828977584       67.1733669264      182.3335043089
N                99.9575805331       61.1962898563      181.5769023092
C               101.3237466057       60.9674865120      181.1515746813
C               101.3922816593       60.3098966848      179.7690421293
O               102.4112004741       60.3378789085      179.1015093325
C               102.1345438738       60.1755911384      182.1724739786
C               102.6976397317       61.0808361864      183.2633783006
O               102.8124351830       62.2889198464      183.1300694299
N               103.1004319438       60.4320216968      184.3624932692
H                99.6372402447       60.7930543017      182.4545300262
H               101.8023256209       61.9501636915      181.0304263921
H               101.5227389133       59.3836080002      182.6002976655
H               102.9872459480       59.7232709514      181.6592831689
H               103.5222016704       60.9514322302      185.1161071989
H               103.0589994336       59.4294432697      184.4321204588
N                99.0749535715       61.4502720301      177.6028800458
C                99.0314752713       62.7289346869      176.9171510577
C               100.4438694147       63.3110113994      176.8507231462
O               100.8704371624       63.8271262765      175.8219497685
C                98.0649707239       63.7074024081      177.5837975298
C                96.6478653157       63.6889735436      176.9930555718
C                96.6284888010       64.2732952179      175.5812007213
C                96.0360775491       62.2898644374      177.0058244461
H                98.4787505599       61.2996393000      178.4089330244
H                98.7377815802       62.5635746362      175.8729887044
H                98.0255046689       63.4833826905      178.6499541060
H                98.4661345759       64.7165207836      177.4817548862
H                96.0405680790       64.3352982303      177.6352288120
H                95.6057505480       64.3716692417      175.2273456076
H                97.0919542257       65.2572573712      175.5629517832
H                97.1638317042       63.6343018343      174.8831176324
H                94.9966670249       62.3385412213      176.6915410839
H                96.5608919279       61.6250080357      176.3242935588
H                96.0727192934       61.8615203685      178.0040485499
N               101.2084344389       63.1697805256      177.9406217701
C               102.5471573410       63.7299145052      177.9132990616
C               103.4428684350       62.9818016578      176.9277059460
O               104.4540241993       63.5189268292      176.4796796023
C               103.1711985672       63.7893287275      179.3035968711
C               102.5026451462       64.8921028775      180.1245454438
O               102.0343911351       65.8860760742      179.5885140411
N               102.5106905687       64.7138811387      181.4474678683
H               100.7651263706       63.0124763217      178.8444615625
H               102.4871702793       64.7631045098      177.5395446829
H               103.1187097621       62.8181109813      179.7903500600
H               104.2225739838       64.0667747563      179.1942985194
H               102.1250618344       65.4429090073      182.0262940106
H               102.8537071302       63.8823752605      181.9106418413
N                97.1041363143       71.2754506832      179.7461477883
C                97.2417434023       70.0848106247      180.5534340951
C                97.8290622024       70.3929110487      181.9325551584
O                97.5610484818       69.6625109670      182.8869989237
C                98.1074098719       69.0346372882      179.8614794687
C                97.4482524600       68.3957788250      178.6330414163
C                98.4960169847       67.5749508922      177.8849379185
C                96.2573958215       67.5202236343      179.0152509733
H                97.6047732718       71.3300254019      178.8660882853
H                96.2377382768       69.6807788584      180.7464942078
H                99.0397280174       69.5210579554      179.5683608384
H                98.3432933987       68.2532754443      180.5866112891
H                97.1012168840       69.1947035529      177.9721268179
H                98.0457402057       67.0816769480      177.0274015151
H                99.2937277171       68.2200269750      177.5241712805
H                98.9285861734       66.8241898030      178.5425377787
H                95.8125720496       67.0835382750      178.1248383850
H                96.5592498021       66.7098243497      179.6751979363
H                95.4863780113       68.1012156352      179.5152726603
N                98.6629140952       71.4254733653      182.0011365672
C                99.2646326046       71.8623461322      183.2450185862
C                98.1833944857       72.4519227110      184.1581161417
O                98.0431487652       72.0613502096      185.3150086412
C               100.3611955187       72.8787824252      182.9600302316
H                98.9396606606       71.9156992266      181.1581369467
H                99.6730441359       70.9871942756      183.7672253147
H               100.8163189558       73.2073884704      183.8896100263
H               101.1194771418       72.4257490858      182.3267810351
H                99.9435282857       73.7378532849      182.4407657182
N                97.4241431219       73.4006329285      183.6085301095
C                96.3612245350       74.0232748621      184.3773371386
C                95.3580812995       72.9537118851      184.8300509251
O                94.8149471376       72.9928464730      185.9257622613
C                95.6968866986       75.1752741376      183.6118337859
C                94.5341842735       74.7408031031      182.7128108249
C                94.0885636595       75.8989680622      181.8393936351
O                94.4482419830       76.0262258673      180.6774589965
N                93.2688835289       76.7757305932      182.4362828561
H                97.5894063859       73.7100679625      182.6560214996
H                96.7905320207       74.4309744532      185.3014907840
H                95.3467206693       75.9009805234      184.3467629390
H                96.4624005812       75.6553277771      182.9976398857
H                94.8617193046       73.9328988415      182.0595627009
H                93.6987231414       74.3910074420      183.3199979165
H                92.9946213598       76.6655632201      183.3970808506
H                92.9543845647       77.5870629370      181.9285378876
N                95.1395892867       71.9812856139      183.9410308178
C                94.2408737422       70.8857007292      184.2349483199
C                94.7860285911       70.1162016286      185.4382586448
O                94.1070467085       69.9737156113      186.4479388883
C                94.0775887455       69.9847498016      183.0218110402
H                95.5389044134       72.0188768565      183.0093196196
H                93.2710835816       71.2947628604      184.5511877396
H                93.3472319405       69.2102517087      183.2354572770
H                93.7409691975       70.5763714150      182.1746476316
H                95.0289996810       69.5201717795      182.7771175266
N                96.0211924611       69.6317922414      185.3148696507
C                96.6545504432       68.8509235500      186.3647588504
C                96.4289208127       69.5062702329      187.7338300743
O                96.0305424675       68.8856516681      188.7085671712
C                98.1498093164       68.7346855799      186.0668440555
C                98.8261419165       67.6521196379      186.8995812763
O                98.2773119828       67.0439467923      187.7954462519
N               100.0924584620       67.4052579191      186.5206849858
H                96.5551181648       69.7538830594      184.4564242965
H                96.2029402281       67.8503987650      186.4126864472
H                98.2806821512       68.5100680335      185.0056956693
H                98.6389537613       69.6889946119      186.2749756537
H               100.6325094935       66.7213441975      187.0252024579
H               100.5445540159       67.9497345109      185.8072890679
N                96.7101171348       70.8103587375      187.7532693975
C                96.6339481210       71.5826271039      188.9733075203
C                95.3547168152       71.2703002232      189.7444830733
O                95.3576042610       71.2049669212      190.9754012938
C                96.6674962160       73.0800465270      188.6565215898
C                98.0572467487       73.5348203527      188.2166937501
C                98.0444543948       74.9405334141      187.6436116159
O                97.0287865646       75.5240281340      187.2962298837
N                99.2637863268       75.4824552840      187.4783942055
H                97.0534270649       71.2748572660      186.9215829504
H                97.4817079180       71.3091603743      189.6187126127
H                95.9477039210       73.2932654681      187.8631891262
H                96.3609596279       73.6403581528      189.5410912994
H                98.7592048740       73.4759100196      189.0482826204
H                98.4190977392       72.8820737192      187.4186614081
H               100.0991185608       75.0118676455      187.7791283545
H                99.3347262627       76.4109548438      187.0944375368
N                94.2409035601       71.1700431940      189.0250625712
C                92.9378793915       71.0319250749      189.6460257569
C                92.8735076655       69.7660076117      190.5052665023
O                92.7979259298       69.8918616944      191.7347623223
C                91.8224768181       71.1676315662      188.6023332179
C                90.4648064290       70.8738630417      189.2372054534
C                91.8457445544       72.5771655539      188.0126653239
H                94.2828041046       71.1068578588      188.0144238485
H                92.8378976502       71.8487483431      190.3779963737
H                92.0108998257       70.4565900600      187.7960497833
H                89.6773104913       70.9875043636      188.4977749439
H                90.4248889547       69.8614368788      189.6310750906
H                90.2703120703       71.5635592492      190.0555471951
H                91.0416121846       72.6856748579      187.2902391295
H                91.7092997154       73.3210456980      188.7942416126
H                92.7887556169       72.7745658364      187.5087549347
N                92.9033957096       68.5543798283      189.9597030457
C                92.8340530133       67.4012078698      190.8485946927
C                93.8999271592       67.4579025962      191.9347248958
O                93.6373112256       67.1192678828      193.0849295731
C                92.9914613712       66.1739033216      189.9404310903
C                93.6152215200       66.7467102476      188.6704522372
C                92.9775596024       68.1286779624      188.5756688736
H                91.8703702044       67.3974247640      191.3703182847
H                93.5949170399       65.3995054631      190.4100484877
H                92.0091160330       65.7551606876      189.7252318798
H                94.6939023854       66.8547937436      188.7774091088
H                93.4048873490       66.1422928322      187.7931304078
H                93.5709064975       68.8131127947      187.9798754118
H                91.9657220198       68.0579859388      188.1625662457
N                95.1273987930       67.8271598823      191.5562900210
C                96.1942668848       67.8930800097      192.5359395138
C                95.7064120951       68.5522779100      193.8340975138
O                95.9820373842       68.0915328725      194.9318026863
C                97.3935653176       68.6728834273      191.9972986447
C                98.1543214101       67.9010008374      190.9155276981
C                99.3312197199       68.7221206124      190.4235401866
O                99.1991364765       69.7748909915      189.8162405817
N               100.5418585384       68.2143746136      190.7016369705
H                95.3174564680       68.1762874988      190.6238700347
H                96.4946278061       66.8723211078      192.8113974011
H                97.0406883893       69.6221417796      191.5919345688
H                98.0615129467       68.8880947716      192.8341398069
H                98.4939371863       66.9437735777      191.3069906101
H                97.5069321281       67.7304610929      190.0541907915
H               100.6533661751       67.3702984845      191.2354330226
H               101.3638877735       68.7294645095      190.4280010534
N                95.0471575527       69.7060049435      193.6552843657
C                94.5072403084       70.4509103048      194.7679092076
C                93.2756079076       69.7677564408      195.3794152827
O                93.1786175755       69.6270689852      196.5975243686
C                94.1591117485       71.8815871829      194.3394017913
C                95.4195373332       72.7389989326      194.3634940392
O                95.7505462857       73.3717880089      195.3568438111
N                96.1371153280       72.7292437729      193.2370032551
H                94.7897280385       70.0088141666      192.7228601268
H                95.2590940836       70.4720695350      195.5692853731
H                93.7143718973       71.8595997372      193.3450504276
H                93.4531937104       72.3042585118      195.0547024898
H                97.0054045826       73.2398441613      193.2171805145
H                95.8685221672       72.1794998674      192.4280884513
N                92.3347811093       69.3759643800      194.5248624980
C                91.1052816396       68.7543612846      194.9856241866
C                91.4003340430       67.7133233766      196.0632370484
O                90.7337879588       67.6395967786      197.0903477798
C                90.3495936040       68.1078455462      193.8118040698
C                89.1985978908       67.2350444224      194.3071012440
C                89.8111440874       69.1817150220      192.8681966690
H                92.4710948945       69.4838748205      193.5235497187
H                90.4717006409       69.5178539420      195.4579482851
H                91.0695380740       67.4702078522      193.2893066979
H                88.6808183123       66.7930867489      193.4601948689
H                89.5557486991       66.4325360891      194.9473546854
H                88.4901083440       67.8301930331      194.8758635698
H                89.2844713778       68.7140057054      192.0402789253
H                89.1113231154       69.8250833746      193.3953714521
H                90.6114970347       69.7959690971      192.4670780553
N                92.3839583471       66.8579012126      195.7848145196
C                92.7075990369       65.7754129800      196.6880902845
C                92.6976484308       66.2164732648      198.1520217380
O                92.2970196874       65.4736490176      199.0377114157
C                94.0976670099       65.2135205018      196.3850537436
C                94.2271989678       64.5474962617      195.0101372478
C                95.6978576947       64.2112258582      194.7737218852
C                93.3585258680       63.3003096784      194.8770274501
H                92.9219832293       66.9442257924      194.9313800082
H                91.9476235085       64.9862497848      196.6064368172
H                94.8116238018       66.0390048480      196.4427385920
H                94.3460412187       64.4906555475      197.1649244994
H                93.9197476790       65.2608246057      194.2422508690
H                95.8277057139       63.7953110421      193.7796762461
H                96.3013464984       65.1113342945      194.8641513611
H                96.0463216126       63.4872390065      195.5064830015
H                93.4135243801       62.9254115623      193.8581221457
H                93.6881981505       62.5253196720      195.5657359663
H                92.3162783673       63.5228494993      195.0877345687
N                93.2642599465       67.4078287385      198.3937746415
C                93.4853443856       67.9100684834      199.7227870395
C                92.3447636323       68.7544897118      200.3009922534
O                92.5518568409       69.4768051369      201.2738654932
C                94.7907219874       68.7309039139      199.7437823406
O                95.2218589720       69.0200537154      201.0423398283
H                93.4351730225       68.0619737868      197.6377886416
H                93.5970077626       67.0483756540      200.3964219310
H                95.5868524143       68.1524937247      199.2669678122
H                94.6311239937       69.6514646578      199.1609032064
H                94.4519559980       69.3840596967      201.5184257122
N                91.1410679029       68.6381672663      199.7339767303
C                90.0169818175       69.3680712675      200.2805816880
C                89.3268498992       68.6306206843      201.4286660688
O                88.5355732253       69.2290935678      202.1478844927
C                89.0195623176       69.8204497902      199.2048946999
C                88.1752866498       68.7367821574      198.5189115428
C                87.0301140431       68.2289931454      199.3909451308
C                87.5885159858       69.3288540480      197.2359295789
H                91.0144865090       68.1266885873      198.8656053125
H                90.4420666384       70.2655679915      200.7546241973
H                88.3408701676       70.5337282596      199.6727585091
H                89.6022441279       70.3369001651      198.4400168715
H                88.8181422276       67.8963532576      198.2501198071
H                86.4507623050       67.4897446102      198.8425739268
H                87.3901894158       67.7598566899      200.3001040167
H                86.3681276272       69.0464769055      199.6671498014
H                86.9767161280       68.5877545454      196.7284423701
H                86.9646881549       70.1893565174      197.4656687682
H                88.3834204525       69.6413614612      196.5640971736
H                93.9597030359       58.5450701002      192.3564933730
H               100.5893783800       59.8447289313      179.3962616506
H                98.8462988858       60.7944718933      177.0304787746
H               103.2076233844       62.0519562105      176.6447797889
H                96.2397034889       71.3886500064      179.5226711596
H                89.5218518470       67.6632547269      201.5904602120
