470
Properties=species:S:1:pos:R:3 pbc="F F F"
N      53.16500000      25.67400000      10.02500000 
C      52.71100000      24.76500000      11.01400000 
C      53.86100000      24.00200000      11.61300000 
O      53.89200000      23.72100000      12.81800000 
C      51.67200000      23.80200000      10.45000000 
C      50.99000000      23.04900000      11.53900000 
O      51.34700000      21.92100000      11.88200000 
N      49.98200000      23.69200000      12.16800000 
H      52.94400000      25.54200000       9.07200000 
H      52.26400000      25.31200000      11.82800000 
H      50.95100000      24.38400000       9.89400000 
H      52.13600000      23.09600000       9.78300000 
H      49.50800000      23.26000000      12.88800000 
H      49.69100000      24.59800000      11.87100000 
N      54.71000000      24.05000000      15.45800000 
C      54.88900000      22.80300000      16.13100000 
C      56.17500000      22.82800000      16.91000000 
O      56.23200000      22.40000000      18.07600000 
C      54.98500000      21.64400000      15.15600000 
C      55.33500000      20.39800000      15.90300000 
O      54.47900000      19.77800000      16.56700000 
N      56.62000000      20.03400000      15.90800000 
H      54.58000000      24.04600000      14.46000000 
H      54.09800000      22.62900000      16.85100000 
H      54.03100000      21.48800000      14.67800000 
H      55.71700000      21.86500000      14.41500000 
H      56.89200000      19.25500000      16.45800000 
H      57.35600000      20.56200000      15.47900000 
N      37.44800000      23.41700000      23.36300000 
C      38.19000000      23.97500000      22.26000000 
C      38.58300000      25.42200000      22.44800000 
O      38.47200000      26.22400000      21.50700000 
H      37.78600000      22.57000000      23.80200000 
H      39.08000000      23.39600000      22.10500000 
H      37.59000000      23.94500000      21.36800000 
N      41.64000000      28.83000000      13.98400000 
C      42.05300000      27.45300000      14.07000000 
C      41.29300000      26.61400000      13.05400000 
O      40.28900000      27.09200000      12.47500000 
C      41.69200000      26.88500000      15.46000000 
C      41.96100000      27.90100000      16.55100000 
C      41.29600000      27.60600000      17.86800000 
N      41.88400000      26.46900000      18.56500000 
C      42.02500000      26.38600000      19.83300000 
N      42.65200000      25.33000000      20.39100000 
N      41.60600000      27.33200000      20.66600000 
H      40.65700000      28.97000000      14.17300000 
H      43.09600000      27.39200000      13.89400000 
H      40.65000000      26.62700000      15.46500000 
H      42.26100000      25.97000000      15.60700000 
H      43.00900000      28.04900000      16.68900000 
H      41.54300000      28.83600000      16.23500000 
H      41.41600000      28.46800000      18.48300000 
H      40.25000000      27.43300000      17.71800000 
H      42.15000000      25.65300000      18.02300000 
H      42.94800000      24.60000000      19.79200000 
H      42.73500000      25.25800000      21.37400000 
H      41.00700000      28.06300000      20.35200000 
H      41.72600000      27.20700000      21.63300000 
N      41.64800000      25.40100000      12.87900000 
C      40.80000000      24.47400000      12.13700000 
C      39.51200000      24.20800000      12.88000000 
O      39.42400000      24.35300000      14.11600000 
C      41.49400000      23.13400000      11.95300000 
H      42.45700000      24.98500000      13.33300000 
H      40.57300000      24.91400000      11.19200000 
H      40.87400000      22.44600000      11.44500000 
H      42.42400000      23.27500000      11.39300000 
H      41.75600000      22.72900000      12.91500000 
N      38.49600000      23.71800000      12.17800000 
C      37.33100000      23.16800000      12.82500000 
C      37.65000000      21.96900000      13.65300000 
O      38.74500000      21.35200000      13.51600000 
C      36.41800000      22.78000000      11.64700000 
C      37.40300000      22.49200000      10.51600000 
C      38.46000000      23.56600000      10.71000000 
H      36.85700000      23.90100000      13.45000000 
H      35.80400000      21.92500000      11.89000000 
H      35.78700000      23.59500000      11.38600000 
H      37.86600000      21.52300000      10.66400000 
H      36.96100000      22.52800000       9.55300000 
H      39.40900000      23.29100000      10.31400000 
H      38.15000000      24.50600000      10.26200000 
N      36.72500000      21.60000000      14.49700000 
C      36.91100000      20.55100000      15.48200000 
C      35.72700000      19.61500000      15.53600000 
O      34.64000000      19.91900000      14.97000000 
C      37.17200000      21.14300000      16.86900000 
C      38.64400000      21.13400000      17.20100000 
S      39.00400000      22.26400000      18.64800000 
C      39.79600000      21.04300000      19.81000000 
H      35.89200000      22.13300000      14.58300000 
H      37.76900000      19.96200000      15.16300000 
H      36.79400000      22.15800000      16.84500000 
H      36.63700000      20.62100000      17.61000000 
H      38.95300000      20.15000000      17.49600000 
H      39.25100000      21.45700000      16.37400000 
H      40.07000000      21.57500000      20.70100000 
H      39.08200000      20.26800000      20.04200000 
H      40.66700000      20.62700000      19.33800000 
N      35.87900000      18.52000000      16.24100000 
C      34.76300000      17.64200000      16.54200000 
C      34.72900000      17.41800000      18.02500000 
O      35.76500000      17.33200000      18.72200000 
C      34.80000000      16.34000000      15.78300000 
O      35.86700000      15.53900000      16.33800000 
C      35.01000000      16.52700000      14.31700000 
H      36.73300000      18.31600000      16.67300000 
H      33.88200000      18.15900000      16.24700000 
H      33.85400000      15.83000000      15.96800000 
H      36.09000000      14.81000000      15.79100000 
H      34.96500000      15.56800000      13.80800000 
H      34.24200000      17.16000000      13.89200000 
H      35.98600000      16.96700000      14.13900000 
N      33.51500000      17.32800000      18.53400000 
C      33.15000000      17.13900000      19.90800000 
C      32.06600000      16.08200000      19.95400000 
O      31.47500000      15.78200000      18.91200000 
C      32.61600000      18.45500000      20.51400000 
C      33.46600000      19.64200000      20.21100000 
C      34.85300000      19.60400000      20.28500000 
C      32.89200000      20.84500000      19.79500000 
C      35.62300000      20.68600000      19.97000000 
C      33.65600000      21.92900000      19.50200000 
C      35.03000000      21.86800000      19.58000000 
O      35.76400000      22.97800000      19.26800000 
H      32.72400000      17.36300000      17.89700000 
H      34.01300000      16.81300000      20.46000000 
H      31.62100000      18.62300000      20.13200000 
H      32.52700000      18.30000000      21.59000000 
H      35.33200000      18.68200000      20.55300000 
H      31.82400000      20.90700000      19.72400000 
H      36.69100000      20.63800000      20.01700000 
H      33.20300000      22.87700000      19.20000000 
H      36.72200000      22.81400000      19.23400000 
N      30.83900000      18.93300000      13.00600000 
C      32.03500000      19.73800000      12.88500000 
C      31.64700000      21.08100000      13.44600000 
O      30.54900000      21.58600000      13.16800000 
C      32.46700000      19.89300000      11.42400000 
C      33.11100000      18.63600000      10.88200000 
C      32.17200000      17.55500000      10.46800000 
O      30.93500000      17.76700000      10.29100000 
N      32.70500000      16.35600000      10.26200000 
H      29.98100000      19.38200000      12.83700000 
H      32.80400000      19.30400000      13.46200000 
H      31.64200000      20.18400000      10.83000000 
H      33.21500000      20.68400000      11.39800000 
H      33.67900000      18.89400000       9.97200000 
H      33.83300000      18.22300000      11.58500000 
H      33.65700000      16.18100000      10.43400000 
H      32.12800000      15.60600000       9.97100000 
N      32.53200000      21.62300000      14.26500000 
C      32.21300000      22.79800000      15.05300000 
C      33.32400000      23.78600000      14.89000000 
O      34.51900000      23.39600000      14.81400000 
C      32.04000000      22.39700000      16.53500000 
C      31.48700000      23.56700000      17.32300000 
C      31.06500000      21.21300000      16.60500000 
H      33.37000000      21.13600000      14.48300000 
H      31.30400000      23.20000000      14.69000000 
H      32.98700000      22.09100000      16.91300000 
H      31.24500000      23.23300000      18.33300000 
H      32.19200000      24.36000000      17.39300000 
H      30.58200000      23.93600000      16.87500000 
H      30.85400000      20.99000000      17.64000000 
H      30.15500000      21.44200000      16.10800000 
H      31.49500000      20.33000000      16.15600000 
N      32.98300000      25.04100000      14.78900000 
C      33.96400000      26.08300000      14.62600000 
C      34.57600000      26.45300000      15.95900000 
O      34.33900000      25.77600000      16.98300000 
C      33.34700000      27.26100000      13.88900000 
C      32.90600000      26.83800000      12.49400000 
C      32.46900000      27.99600000      11.63300000 
O      32.68400000      29.17100000      12.03000000 
O      31.91600000      27.68500000      10.51900000 
H      32.02200000      25.32400000      14.91800000 
H      34.77600000      25.66700000      14.03500000 
H      32.54800000      27.65400000      14.43300000 
H      34.09300000      28.04100000      13.77500000 
H      33.70500000      26.32800000      11.98200000 
H      32.08600000      26.14100000      12.56000000 
N      35.38900000      27.48600000      15.96100000 
C      36.27300000      27.77300000      17.05500000 
C      36.07900000      29.12400000      17.72800000 
O      37.09200000      29.69400000      18.17700000 
C      37.70200000      27.68300000      16.53900000 
C      38.00200000      28.74900000      15.51200000 
O      37.03000000      29.37000000      15.00600000 
O      39.21300000      28.93000000      15.22700000 
H      35.56900000      28.01800000      15.14700000 
H      36.10900000      27.03300000      17.81400000 
H      38.39700000      27.76100000      17.34300000 
H      37.82500000      26.71300000      16.07500000 
N      34.89600000      29.66400000      17.89000000 
C      34.74300000      30.96500000      18.47800000 
C      34.39100000      30.90000000      19.92500000 
O      34.17600000      29.84400000      20.54200000 
C      33.55900000      31.53600000      17.69300000 
C      32.66300000      30.32000000      17.53600000 
C      33.57200000      29.10700000      17.52600000 
H      35.64100000      31.53200000      18.35600000 
H      33.07300000      32.35600000      18.21100000 
H      33.91300000      31.88400000      16.74200000 
H      31.97700000      30.24900000      18.36800000 
H      32.08400000      30.38300000      16.62000000 
H      33.27000000      28.37300000      18.25000000 
H      33.61400000      28.66100000      16.56200000 
N      29.45600000      29.15500000      17.32300000 
C      29.30700000      27.78300000      16.90700000 
C      29.29700000      26.85200000      18.09100000 
O      28.56600000      25.87700000      18.09100000 
C      30.47100000      27.45300000      15.97000000 
O      30.30000000      26.18500000      15.37500000 
H      30.11100000      29.72400000      16.84800000 
H      28.37100000      27.64300000      16.40400000 
H      30.53100000      28.22800000      15.22600000 
H      31.37200000      27.40400000      16.51000000 
H      29.55800000      26.15000000      14.75800000 
N      35.79900000      16.65800000      23.94800000 
C      36.52300000      17.22000000      22.82100000 
C      37.43500000      16.14800000      22.25800000 
O      38.05900000      15.44700000      22.96300000 
C      37.31800000      18.45200000      23.31400000 
C      38.37900000      18.13700000      24.35400000 
C      37.98200000      19.18200000      22.16400000 
H      36.28300000      16.49700000      24.75600000 
H      35.81800000      17.54200000      22.10500000 
H      36.58100000      19.09000000      23.76500000 
H      38.81400000      19.06000000      24.69100000 
H      37.99300000      17.61300000      25.21600000 
H      39.16500000      17.53600000      23.91800000 
H      38.41700000      20.10200000      22.51800000 
H      38.74200000      18.57800000      21.71600000 
H      37.25000000      19.43600000      21.40400000 
N      37.50700000      16.05600000      20.90500000 
C      38.50400000      15.19100000      20.36900000 
C      39.87400000      15.70900000      20.81600000 
O      40.09600000      16.82600000      21.08400000 
C      38.43800000      15.14700000      18.85400000 
C      39.23700000      14.04300000      18.22000000 
O      39.64600000      13.09900000      18.96400000 
O      39.40500000      14.12100000      16.97500000 
H      36.93400000      16.60100000      20.31000000 
H      38.38100000      14.19200000      20.74700000 
H      37.39000000      15.00800000      18.56300000 
H      38.73900000      16.09600000      18.43400000 
N      40.81100000      14.75000000      20.85300000 
C      42.13600000      15.05000000      21.30200000 
C      42.92800000      15.74000000      20.20300000 
O      42.97700000      15.27600000      19.06000000 
C      42.84100000      13.75100000      21.65900000 
H      40.61100000      13.85600000      20.43200000 
H      42.08400000      15.70100000      22.14800000 
H      43.85800000      13.93100000      21.95300000 
H      42.30900000      13.28100000      22.46900000 
H      42.82700000      13.09200000      20.80100000 
N      43.57500000      16.83800000      20.58100000 
C      44.37700000      17.58200000      19.63500000 
C      45.76500000      16.99400000      19.54100000 
O      46.46800000      16.87800000      20.55500000 
C      44.42000000      19.03500000      20.06500000 
C      45.36900000      19.78700000      19.14100000 
C      43.04400000      19.59800000      20.03200000 
H      43.43300000      17.22100000      21.45900000 
H      43.90800000      17.52300000      18.65900000 
H      44.80400000      19.06100000      21.06700000 
H      45.25600000      20.84900000      19.25200000 
H      46.40800000      19.54500000      19.36000000 
H      45.18600000      19.53200000      18.11200000 
H      43.04600000      20.66900000      20.25100000 
H      42.59500000      19.47300000      19.05500000 
H      42.38700000      19.13100000      20.75500000 
N      46.17000000      16.61400000      18.34900000 
C      47.44000000      15.97300000      18.10000000 
C      48.52300000      16.94300000      17.72900000 
O      49.69900000      16.56700000      17.69000000 
C      47.31900000      14.94500000      16.96300000 
C      47.31000000      13.48800000      17.38500000 
C      46.02600000      13.01400000      18.05800000 
C      45.83600000      13.50000000      19.47500000 
N      46.91100000      12.94800000      20.34200000 
H      45.54200000      16.69300000      17.57600000 
H      47.76900000      15.49800000      19.01000000 
H      46.44000000      15.16700000      16.38400000 
H      48.17500000      15.07400000      16.30100000 
H      47.45700000      12.88400000      16.50500000 
H      48.16100000      13.30300000      18.02100000 
H      45.17600000      13.33300000      17.47800000 
H      46.00600000      11.93600000      18.07300000 
H      45.89200000      14.56700000      19.53900000 
H      44.89900000      13.18900000      19.87500000 
H      47.23000000      13.60300000      21.07500000 
H      46.59100000      12.12100000      20.82600000 
H      47.71500000      12.69000000      19.83000000 
N      48.15200000      18.17600000      17.33700000 
C      49.09600000      19.04200000      16.66500000 
C      48.53100000      20.43300000      16.71600000 
O      47.40000000      20.65500000      17.13100000 
C      49.27600000      18.57300000      15.21200000 
C      50.47900000      17.68400000      15.07400000 
O      51.57800000      18.06100000      15.46600000 
N      50.29000000      16.52600000      14.44100000 
H      47.23100000      18.47000000      17.42300000 
H      50.03500000      19.00800000      17.17100000 
H      48.37800000      18.09500000      14.88600000 
H      49.46200000      19.41800000      14.57100000 
H      51.07300000      15.92000000      14.30400000 
H      49.39500000      16.21000000      14.16200000 
N      49.30300000      21.41300000      16.24100000 
C      48.84000000      22.79000000      16.35800000 
C      47.70200000      23.07500000      15.44900000 
O      47.09800000      24.16400000      15.56400000 
C      50.07600000      23.62900000      15.98800000 
C      51.24700000      22.66200000      16.15900000 
C      50.69100000      21.32600000      15.76000000 
H      48.51700000      22.98700000      17.35200000 
H      50.02200000      23.95900000      14.97200000 
H      50.14800000      24.49700000      16.62100000 
H      52.09400000      22.95500000      15.57200000 
H      51.54900000      22.63200000      17.20800000 
H      50.67000000      21.23600000      14.67800000 
H      51.18700000      20.49900000      16.16900000 
N      47.31200000      22.16900000      14.55200000 
C      46.23200000      22.42600000      13.64600000 
C      44.90400000      22.65300000      14.30700000 
O      44.02700000      23.27500000      13.69300000 
H      47.81600000      21.33800000      14.47800000 
H      46.42400000      23.30100000      13.04400000 
H      46.14300000      21.56500000      12.99100000 
N      44.70800000      22.19600000      15.53500000 
C      43.48000000      22.47900000      16.25300000 
C      43.69100000      23.68100000      17.14200000 
O      42.80700000      23.95000000      18.01600000 
C      42.97300000      21.30500000      17.01600000 
C      42.41600000      20.22800000      16.11200000 
O      41.91100000      20.57200000      15.02200000 
O      42.46800000      19.03400000      16.55200000 
H      45.42100000      21.65100000      15.99800000 
H      42.75300000      22.76300000      15.51900000 
H      43.72900000      20.89200000      17.63600000 
H      42.17000000      21.63000000      17.65900000 
N      44.74600000      24.39800000      16.93600000 
C      45.13100000      25.55500000      17.72400000 
C      45.33100000      26.77100000      16.84400000 
O      45.09000000      27.90800000      17.33800000 
C      46.39400000      25.28600000      18.54400000 
C      46.58300000      26.34200000      19.61900000 
C      46.28900000      23.90900000      19.19000000 
H      45.38100000      24.05200000      16.26300000 
H      44.32600000      25.78200000      18.40600000 
H      47.24000000      25.29600000      17.88700000 
H      47.45300000      26.12000000      20.20700000 
H      46.69900000      27.32500000      19.19900000 
H      45.72600000      26.35600000      20.28400000 
H      47.11500000      23.76600000      19.85300000 
H      45.37300000      23.83100000      19.75400000 
H      46.30000000      23.12700000      18.44600000 
N      45.75900000      26.58000000      15.65300000 
C      45.99800000      27.63400000      14.68200000 
C      45.58900000      27.12800000      13.32300000 
O      45.64400000      25.91900000      13.06200000 
C      47.48800000      27.99500000      14.59700000 
C      48.07600000      28.34300000      15.89200000 
C      47.94300000      29.62500000      16.44600000 
C      48.78800000      27.40200000      16.63400000 
C      48.43400000      29.93800000      17.62700000 
C      49.31800000      27.72200000      17.87100000 
C      49.14300000      28.98400000      18.38700000 
H      46.05500000      25.67200000      15.34600000 
H      45.41400000      28.49100000      14.96400000 
H      48.00400000      27.15400000      14.15200000 
H      47.56600000      28.82900000      13.91000000 
H      47.41000000      30.34200000      15.85400000 
H      48.90800000      26.41700000      16.22900000 
H      48.31600000      30.93100000      18.05300000 
H      49.86300000      26.98900000      18.41400000 
H      49.54500000      29.23800000      19.34200000 
N      45.21500000      28.05000000      12.45100000 
C      44.83200000      27.73500000      11.11500000 
C      46.06100000      27.59900000      10.23800000 
O      47.09600000      27.06800000      10.67600000 
C      43.82200000      28.77900000      10.62000000 
C      42.85300000      28.19500000       9.59100000 
C      42.06100000      29.27900000       8.95400000 
O      41.54600000      30.19700000       9.63000000 
N      41.91900000      29.23700000       7.62700000 
H      44.98600000      28.95700000      12.80800000 
H      44.37100000      26.76600000      11.11200000 
H      43.24800000      29.10300000      11.46500000 
H      44.33500000      29.63600000      10.22500000 
H      43.35900000      27.61400000       8.83700000 
H      42.16200000      27.53300000      10.09900000 
H      42.33600000      28.51800000       7.08600000 
H      41.38600000      29.92700000       7.16100000 
N      43.51200000      24.10100000      26.68200000 
C      42.23800000      24.11900000      25.99400000 
C      41.20000000      23.45200000      26.83700000 
O      41.47000000      22.42900000      27.51300000 
C      42.30700000      23.54900000      24.57000000 
C      42.43300000      22.05200000      24.40100000 
C      43.56400000      21.36900000      24.80400000 
C      41.46000000      21.34200000      23.72800000 
C      43.73200000      20.01200000      24.51800000 
C      41.61000000      20.02300000      23.40600000 
C      42.75400000      19.36200000      23.78500000 
O      42.94100000      18.05900000      23.38400000 
H      43.84000000      23.21100000      27.01500000 
H      41.97200000      25.16300000      25.87900000 
H      41.44000000      23.88800000      24.04400000 
H      43.16000000      24.04100000      24.11600000 
H      44.34500000      21.86600000      25.33200000 
H      40.55000000      21.86000000      23.42100000 
H      44.60300000      19.50400000      24.83700000 
H      40.84400000      19.48200000      22.85700000 
H      43.68400000      17.62800000      23.79800000 
N      47.72600000      22.12700000      25.94600000 
C      47.96600000      21.95600000      24.53800000 
C      49.41600000      22.21000000      24.23000000 
O      49.81600000      23.33700000      23.93300000 
C      47.07400000      22.88000000      23.74000000 
C      46.90900000      22.41600000      22.30200000 
C      48.22100000      22.23700000      21.55800000 
C      46.09800000      21.15700000      22.21600000 
H      47.68600000      23.06100000      26.30000000 
H      47.73600000      20.93300000      24.31600000 
H      46.10900000      22.89500000      24.20800000 
H      47.48300000      23.87200000      23.79000000 
H      46.34600000      23.21700000      21.79300000 
H      48.01800000      21.94000000      20.52800000 
H      48.82300000      23.13000000      21.55100000 
H      48.79200000      21.43600000      22.00600000 
H      45.93100000      20.89800000      21.18800000 
H      46.61000000      20.33500000      22.68100000 
H      45.13100000      21.26900000      22.70600000 
N      50.13700000      16.83800000      25.21100000 
C      49.10500000      15.87200000      25.45800000 
C      49.15300000      15.26100000      26.85000000 
O      48.44900000      14.24000000      27.06500000 
C      49.03800000      14.76000000      24.42000000 
C      48.38500000      15.09100000      23.12600000 
O      48.10600000      14.14200000      22.35400000 
N      48.10400000      16.34800000      22.82000000 
H      49.87900000      17.78200000      25.10900000 
H      48.16800000      16.41200000      25.44000000 
H      50.03100000      14.40700000      24.20700000 
H      48.49400000      13.93600000      24.82800000 
H      47.60400000      16.53800000      21.95800000 
H      48.34500000      17.09800000      23.38800000 
H      52.84303891      26.49566011      10.20167969 
H      54.62278448      23.71019734      11.03460946 
H      53.97909158      24.46372991      15.78141992 
H      57.00616528      23.19388535      16.49132089 
H      37.40738133      24.01749635      24.03214442 
H      38.93291775      25.73438975      23.33115922 
H      42.10085431      29.31978550      14.58209988 
H      31.83752885      15.63747575      20.82014036 
H      30.87510412      18.25127921      12.41952471 
H      34.31561530      31.74177061      20.45954596 
H      28.67018892      29.58393827      17.23073454 
H      29.88965423      27.03442692      18.87552622 
H      35.13043929      17.21300838      24.18250434 
H      46.04405988      27.93809690       9.29740108 
H      44.15555654      24.40382619      26.13051902 
H      40.27061604      23.81965097      26.86983622 
H      46.93418370      21.75816233      26.16276190 
H      50.07371796      21.45751990      24.26436267 
H      50.72381286      16.83185033      25.89335830 
H      49.73009998      15.67091640      27.55634564 
