 491 
 
N                23.1912910345       36.4352323904       27.0928317102
C                23.0941113557       36.9668664743       28.4394729038
C                22.7827976167       38.4601008946       28.4118286975
O                21.9115709944       38.9567612092       29.1366348573
C                24.4112517079       36.6978542760       29.1813855814
C                24.3443517785       37.0423179015       30.6325544121
C                23.9460145326       36.2066605833       31.6395611246
C                24.7021673050       38.2776196759       31.2533382405
N                24.0476490622       36.8304530385       32.8472510730
C                24.5082212694       38.0977601224       32.6481970294
C                25.1814990029       39.5030378360       30.7843748523
C                24.7988001081       39.1057241998       33.5614230704
C                25.4680406823       40.4958409920       31.6947260181
C                25.2856697355       40.2978290102       33.0687755543
H                24.0592828420       35.9903428075       26.8146936874
H                22.2591630647       36.4731616479       28.9535644182
H                24.6367113053       35.6348709863       29.0734419266
H                25.1961869290       37.2751209980       28.6920899735
H                23.6071326813       35.1924518833       31.5662106966
H                23.7682494178       36.4357452381       33.7378285364
H                25.3334284701       39.6651957938       29.7274681361
H                24.6687083587       38.9538554750       34.6217739566
H                25.8509108453       41.4490405869       31.3555878730
H                25.5368465113       41.0991391121       33.7502271475
N                23.5161883793       39.1857453536       27.5814634008
C                23.3076762517       40.6090187302       27.4474024155
C                21.8680380026       40.9245629709       27.0585905182
O                21.2900522845       41.8947258819       27.5464559009
C                24.2459688937       41.2065070659       26.3994055914
C                25.6988411885       41.3021137179       26.8789870795
C                26.6159539817       41.5967398245       25.6939944498
C                25.8612290657       42.3818330771       27.9450322567
H                24.2324248958       38.7512537863       27.0061172226
H                23.4693548465       41.0858390144       28.4232550692
H                24.1830070438       40.5793644421       25.5082300831
H                23.8866261853       42.2038932648       26.1379418840
H                25.9823370505       40.3326851998       27.2998754090
H                27.6428458184       41.7086921134       26.0304239446
H                26.5799911642       40.7850837470       24.9711356267
H                26.3144327490       42.5175560965       25.2005164203
H                26.8840804541       42.4083483859       28.3079328765
H                25.6145256686       43.3579095897       27.5339591480
H                25.2147838775       42.2040371654       28.8002090409
N                21.3070812686       40.1313757973       26.1514437046
C                19.9454064234       40.3744878903       25.7238224766
C                19.0228250371       40.2641815589       26.9356056546
O                18.2166670709       41.1481542212       27.2108647590
C                19.5147970432       39.4330959037       24.5937326047
C                18.0451584131       39.6805649759       24.2617603235
C                20.3746600291       39.6587279637       23.3529199206
H                21.8274098075       39.3710051116       25.7299211457
H                19.8691770603       41.4165311588       25.3799873983
H                19.6471517861       38.4059134668       24.9475271617
H                17.7385912951       39.0553322271       23.4282308575
H                17.4110246402       39.4595373852       25.1158895176
H                17.8943041967       40.7209318966       23.9823950677
H                20.0466505066       39.0026400128       22.5512128051
H                20.2899571617       40.6877769305       23.0118578678
H                21.4206472889       39.4483468263       23.5524554868
N                19.1585427417       39.1664029133       27.6861872023
C                18.3428719125       39.0448551816       28.8731997516
C                18.4850413089       40.3028552414       29.7425067193
O                17.4981043299       40.8697141589       30.1996553568
C                18.6709661034       37.7869980870       29.7181222327
O                19.9107731010       37.2011172227       29.4885755467
H                19.7939100212       38.4148460690       27.4335733029
H                17.2845043743       39.0036240877       28.5768165294
H                18.5642716589       38.0704677748       30.7784192569
H                17.9380140242       37.0096157913       29.4881278478
H                20.6229248447       37.8774629202       29.5006770752
N                19.7384518087       40.6632071407       30.0207289801
C                20.0385830337       41.7924100859       30.8847566072
C                19.2712534612       43.0240146385       30.4007581498
O                18.5960325346       43.7122499086       31.1621087545
C                21.5415335707       42.0791236644       30.8663816761
C                21.9325853428       43.2456473973       31.7939928832
C                22.4370737898       42.7256593006       33.1379681107
C                22.9926728804       44.1257698972       31.1343676235
H                20.5295626194       40.1500885315       29.6440185360
H                19.6953458968       41.5742420831       31.9049299702
H                22.0756932122       41.1742366602       31.1628651801
H                21.8211605730       42.3157220241       29.8388277859
H                21.0452499881       43.8622383901       31.9723038445
H                22.6772739911       43.5537241909       33.7995797056
H                21.6866078708       42.1057455400       33.6215497070
H                23.3358268769       42.1312031942       32.9927188528
H                23.2324244626       44.9691841627       31.7758678683
H                23.9091072447       43.5649759190       30.9671248078
H                22.6343982286       44.5111817609       30.1820306805
N                19.4381851963       43.2963041693       29.1117968038
C                18.8575004034       44.4620891033       28.4732300706
C                17.3577984891       44.4692662932       28.7360965363
O                16.7908881416       45.4293015357       29.2684723537
C                19.2139468107       44.4064598595       26.9847206936
C                18.7708191025       45.5989289419       26.1254897963
C                17.2731427217       45.5758041062       25.8301280545
C                19.1793671619       46.9369523297       26.7389655468
H                20.0212316513       42.6973793766       28.5339607871
H                19.2719357947       45.3672873699       28.9366512356
H                20.3019396686       44.3232020971       26.9335859920
H                18.7923161918       43.4873782955       26.5726365038
H                19.2973258649       45.4918190366       25.1694551145
H                17.0219737769       46.3674705167       25.1291784709
H                16.9802722207       44.6227564572       25.3958783702
H                16.6957522674       45.7402902145       26.7345188326
H                19.0045813757       47.7405499795       26.0285058170
H                18.6004710531       47.1550468371       27.6335693484
H                20.2345132236       46.9344389807       27.0013061627
N                16.7009782963       43.3800031313       28.3615074915
C                15.2633805909       43.3011052069       28.5163669059
C                14.8617038669       43.6399846026       29.9545859366
O                13.9479024221       44.4223263380       30.2006715851
C                14.7605238305       41.9118316727       28.1318657858
C                14.8902917694       41.6021606407       26.6338912237
C                14.5953946619       40.1211811647       26.4051819360
C                13.9497226538       42.4569951086       25.7883046833
H                17.1968204772       42.5774416756       27.9880802017
H                14.7972340837       44.0686652907       27.8857295774
H                15.3397677258       41.1821965858       28.7007267542
H                13.7132606972       41.8288073973       28.4280462951
H                15.9222393554       41.7961354365       26.3264737105
H                14.6618532808       39.8849607463       25.3465482943
H                15.3121534996       39.5032900227       26.9415753409
H                13.5937932400       39.8759231829       26.7498816586
H                14.0415423929       42.1864243783       24.7392831599
H                12.9181046908       42.3003240987       26.0947455602
H                14.1792503053       43.5149029230       25.8841573600
N                15.5416447441       42.9911190973       30.8983116888
C                15.2506471369       43.1849363102       32.3050136098
C                15.3681493911       44.6654477807       32.6752105163
O                14.5165761879       45.2378848240       33.3469822343
C                16.2137752509       42.3607463524       33.1480187212
H                16.2797917383       42.3402062050       30.6532046484
H                14.2106772123       42.8871110702       32.4971621036
H                15.9651145874       42.4599058833       34.2004595380
H                16.1411619901       41.3170927296       32.8540237436
H                17.2326787130       42.6997107970       32.9773517084
N                16.4806054890       45.2589917806       32.2437517262
C                16.7617004530       46.6411328664       32.5667479795
C                15.6337892277       47.5486601769       32.0739444120
O                15.2365519996       48.4892997386       32.7546893424
C                18.1167564955       47.0789764701       31.9791674645
O                18.0818393943       47.4094330670       30.6207507325
H                17.1789653756       44.7286629865       31.7296162912
H                16.8060362967       46.7507242262       33.6592694330
H                18.4544796580       47.9785876079       32.5000828924
H                18.8362829329       46.2685321317       32.1668514415
H                17.6901919320       46.6630410721       30.1180927937
N                15.1379443384       47.2448273111       30.8782099576
C                14.0577263943       48.0075907501       30.2890214622
C                12.8255484618       47.9153025200       31.1879653555
O                12.2072568462       48.9201074616       31.5271777709
C                13.7621640608       47.5146775746       28.8659640684
C                12.4618603546       48.1226753790       28.3462696215
C                14.9227210888       47.8762423614       27.9427984334
H                15.5118221280       46.4662647156       30.3498162356
H                14.3433111591       49.0689180800       30.2611563248
H                13.6563909423       46.4258210637       28.9116715500
H                12.2919009966       47.8125634661       27.3191834387
H                11.6131781436       47.8061671156       28.9477165958
H                12.5165523655       49.2087007042       28.3730854214
H                14.7325950520       47.4994166643       26.9414823045
H                15.0390502685       48.9559888312       27.8876226433
H                15.8531160049       47.4483470732       28.3049113901
N                12.4798598810       46.6890566611       31.5758903956
C                11.3339213300       46.4851988283       32.4438736684
C                11.4759617648       47.3813681192       33.6788536564
O                10.5877035821       48.1442668238       34.0445736791
C                11.2001217930       45.0061065693       32.8346830940
C                10.1065567399       44.8333404670       33.8871141652
C                10.8855686000       44.1570574208       31.6042638608
H                13.0046898268       45.8821212719       31.2594919138
H                10.4240339310       46.8162422616       31.9217302974
H                12.1606370039       44.6880396553       33.2522927064
H                 9.9967521243       43.7820728223       34.1385082517
H                10.3424661493       45.3868872866       34.7919528410
H                 9.1550619703       45.1960063369       33.5054213164
H                10.7608270013       43.1173344876       31.8954679701
H                 9.9637613739       44.4933004640       31.1355287945
H                11.6868879180       44.2109139513       30.8725054093
N                12.6247920067       47.2367808284       34.3404692416
C                12.9226114367       48.0229412996       35.5225831601
C                12.6493399371       49.5069875930       35.2577921753
O                11.9524249776       50.1765480878       36.0131356572
C                14.3845933289       47.7963547445       35.9328091589
C                14.8296931668       48.7464721361       36.9956453309
C                14.6129622895       48.6682509461       38.3422585729
C                15.5781920608       49.9437203090       36.7752401268
N                15.1780838125       49.7416370999       38.9740579053
C                15.7817191510       50.5359215635       38.0446649535
C                16.1118381285       50.5548932263       35.6400108993
C                16.4908167269       51.7222762570       38.1960305093
C                16.8110597138       51.7302692806       35.7974699211
C                16.9989659740       52.3088006417       37.0576324393
H                13.3371354469       46.6036494881       33.9933480828
H                12.2445896153       47.7234013307       36.3338592228
H                14.4874915453       46.7624640672       36.2687984835
H                15.0059049380       47.9379221013       35.0471075677
H                14.1030581145       47.9019481557       38.8936828440
H                15.2210989442       49.8894401962       39.9686188984
H                15.9890467736       50.1095511676       34.6635247957
H                16.6475783008       52.1648927251       39.1663087390
H                17.2339651037       52.2184130184       34.9304830122
H                17.5565400486       53.2311163181       37.1305138343
N                13.2431420731       49.9973291822       34.1739655179
C                13.1370115179       51.3883794335       33.7925274019
C                11.6735224326       51.8212654618       33.6985116964
O                11.2706025449       52.8522108183       34.2281405171
C                13.8326421472       51.5928367788       32.4422364318
C                13.7247644434       53.0142842932       31.9694596825
C                12.6837167975       53.4037912512       31.1361086560
C                14.6651162554       53.9598880226       32.3572113157
C                12.5914005311       54.7090245680       30.6860598166
C                14.5820911906       55.2633673433       31.8991895840
C                13.5469656200       55.6396148173       31.0580094709
H                13.8305209456       49.4046435299       33.5975150027
H                13.6069933877       52.0176208210       34.5620345375
H                14.8803899108       51.3071151105       32.5536066884
H                13.3650728609       50.9202527598       31.7215154180
H                11.9465742105       52.6743384688       30.8309835153
H                15.4739841250       53.6662610190       33.0098481047
H                11.7759710068       55.0001624451       30.0408103795
H                15.3354789765       55.9821181551       32.1885710092
H                13.4807829956       56.6533491703       30.6924232459
N                10.8868114360       51.0159316482       32.9872222536
C                 9.4810078921       51.3227242446       32.8133272953
C                 8.8734633636       51.6155035228       34.1862925551
O                 8.2339029685       52.6406372471       34.4136779000
C                 8.7546647042       50.1678849065       32.1039229134
C                 9.2141488261       50.0887593037       30.6422473322
C                 7.2418634986       50.3495210500       32.2034553070
C                 8.6647395166       48.8713526352       29.9060244235
H                11.2545976261       50.1628681451       32.5815287203
H                 9.3802435952       52.2470169235       32.2254017444
H                 9.0401085114       49.2430221289       32.6149511529
H                 8.9053900613       50.9978727715       30.1209362946
H                10.3038658185       50.0383191317       30.6187233345
H                 6.7275511626       49.4981768460       31.7694292121
H                 6.9303768875       50.4373461382       33.2409187009
H                 6.9323434377       51.2511186758       31.6794971332
H                 9.1076764680       48.8062840478       28.9155302514
H                 8.9058540520       47.9592326381       30.4478727756
H                 7.5869827393       48.9315847507       29.7901005395
N                 9.0726441531       50.6615075771       35.0940488601
C                 8.5159978842       50.7555850809       36.4273377058
C                 8.9135025511       52.0727882962       37.1016886452
O                 8.0875931811       52.7323303883       37.7234478975
C                 8.9644551539       49.5766249015       37.2963568291
C                 8.0413063847       48.3487102392       37.2350096553
C                 6.7380430247       48.6022994323       37.9919308841
C                 7.7570631922       47.9027598783       35.8034825145
H                 9.6336968489       49.8517274921       34.8588707636
H                 7.4205860381       50.7882873344       36.3507108010
H                 9.9745316007       49.3097764220       36.9811846258
H                 9.0036006589       49.9188745099       38.3319910483
H                 8.5704952898       47.5337786877       37.7413744710
H                 6.1037315071       47.7206091455       37.9528809885
H                 6.9402442139       48.8341738641       39.0343819615
H                 6.1870334607       49.4345986687       37.5598574508
H                 7.2056457314       46.9657273616       35.8087043355
H                 7.1596969595       48.6409693504       35.2740993450
H                 8.6813479947       47.7526359034       35.2523000272
N                10.2089246956       52.3840397012       37.0443931188
C                10.7370527463       53.5911301607       37.6507697979
C                 9.8765843858       54.8243763847       37.3474292051
O                 9.7165340720       55.6954999505       38.1893438537
C                12.1901118774       53.8183051955       37.1922331555
C                12.7061927485       55.1851069916       37.6364253031
C                13.1092832603       52.7219193855       37.7300888048
H                10.8315706149       51.8246342282       36.4715807456
H                10.6932056359       53.4920902318       38.7450700485
H                12.1809298460       53.7806764095       36.0997264881
H                13.7560111498       55.2842057610       37.3743194281
H                12.1531731521       55.9877116685       37.1550145531
H                12.5934789008       55.3074212734       38.7106854063
H                14.1034101406       52.8454695842       37.3084140793
H                13.1881147519       52.7966735699       38.8099627772
H                12.7515144300       51.7346019902       37.4553752589
N                 9.3954210199       54.9044379522       36.0981174930
C                 8.5888963160       56.0222858639       35.6692361371
C                 7.1041615756       55.8589208945       36.0114833668
O                 6.4601447274       56.7753094364       36.5103844397
C                 8.7480911767       56.2485760540       34.1587682265
C                10.1107641510       56.7735968844       33.8567643188
N                10.3453925871       58.1090486209       33.6867186038
C                11.2938121765       56.0878496800       33.7772312010
C                11.6329487864       58.2243026934       33.5055218686
N                12.2585483249       57.0281786289       33.5562496216
H                 9.5486711254       54.1539265312       35.4384600038
H                 8.9269146632       56.9080235858       36.2209162247
H                 8.5805258371       55.2962225139       33.6519211812
H                 8.0033194824       56.9752832629       33.8325234181
H                11.5083493094       55.0423284062       33.8446767144
H                12.1379165281       59.1551171794       33.3443625664
H                13.2384180282       56.8410694881       33.4146023959
N                 6.5658724039       54.6796744229       35.6893176110
C                 5.1619685942       54.4034352228       35.9253089893
C                 4.7948210452       54.6627412036       37.3933052578
O                 3.7440305479       55.1970099039       37.7194233075
C                 4.8500846438       52.9474525356       35.5377605846
C                 3.4991979000       52.4957452017       36.0863666307
C                 4.8911971842       52.7924214487       34.0190239442
H                 7.1426258219       53.9436324531       35.2972282175
H                 4.5480656011       55.0935193479       35.3297035644
H                 5.6342944356       52.3259544359       35.9840232967
H                 3.2584378076       51.5063100127       35.7067164944
H                 3.5173607143       52.4583165186       37.1724487875
H                 2.7166385329       53.1854288905       35.7807050390
H                 4.6691173007       51.7648699865       33.7426139459
H                 4.1499989104       53.4391022000       33.5564793474
H                 5.8725691050       53.0514627897       33.6308986875
N                 5.6995303942       54.1859683514       38.2500031206
C                 5.4998404493       54.0628134336       39.6724258288
C                 6.5777325674       54.8388292368       40.4336850820
O                 7.7659661518       54.6842385681       40.2200742873
C                 5.5988932762       52.5708785089       40.0575848063
O                 4.5646855423       51.8931040030       39.3702212610
C                 5.5006709367       52.3690578685       41.5643509012
H                 6.5650420237       53.7951429428       37.8881116435
H                 4.4977949158       54.4424280560       39.8992539940
H                 6.5767407474       52.2201225845       39.6936878280
H                 4.4538784754       51.0204064373       39.7713789200
H                 5.5773930642       51.3100732714       41.7998668769
H                 6.3017250296       52.9010473335       42.0715118661
H                 4.5446123483       52.7400025023       41.9276602186
N                 9.2889845510       56.0587487727       42.9092083991
C                10.4118238488       55.3845127421       43.5261419738
C                10.4117486780       55.7538777139       45.0241274029
O                 9.4172133547       55.5559931752       45.7063033927
C                11.6711806680       55.6949201527       42.7078702167
C                12.7401184592       54.6052151588       42.8403932863
C                12.4068299601       53.4338601898       41.9140904741
N                13.1740540715       52.2517358412       42.2756618535
C                13.0079609693       51.0473999933       41.7411983655
N                12.1823196064       50.8582929180       40.7180762080
N                13.7436046818       50.0249674454       42.1991445058
H                 9.2820542206       57.0791805476       42.9088150522
H                10.1560785962       54.3175306650       43.4775910992
H                11.3503991190       55.7700006611       41.6666809112
H                12.0573546560       56.6789939349       42.9759378979
H                13.7113408903       55.0176661592       42.5714373306
H                12.7693905421       54.2721110516       43.8768890657
H                11.3358581816       53.2157475360       41.9855930809
H                12.6337249490       53.7273491252       40.8842314412
H                13.8847472946       52.3652346798       42.9855819572
H                11.6515908334       51.6109909536       40.3100412107
H                12.0768129757       49.9459483735       40.3035044872
H                14.0994767218       50.0535730813       43.1486698914
H                13.5352694008       49.0950637275       41.8644249946
N                11.0219740352       46.7975487320       44.8410949024
C                11.0442773099       46.8077600385       43.3937785006
C                12.4403191697       46.5018121576       42.8478207556
O                12.5820127795       45.8899382525       41.7939689390
C                10.5839667434       48.1640757015       42.8517927185
C                 9.0995337064       48.4733251219       43.0943202975
C                 8.8153376535       49.9077586285       42.6456834693
C                 8.1837482261       47.5013862831       42.3550201858
H                10.7317350292       47.6503486149       45.3093201534
H                10.3941184335       46.0106127466       43.0129861627
H                11.1850295754       48.9395093624       43.3298468529
H                10.7645219235       48.1756520604       41.7762101320
H                 8.8955748547       48.4086126007       44.1656864639
H                 7.7744822502       50.1680367742       42.8208392966
H                 9.4221384447       50.6193694469       43.2008313878
H                 9.0128204082       50.0330886921       41.5842180096
H                 7.1478316877       47.8070190790       42.4752304830
H                 8.4114754980       47.4915826090       41.2915720362
H                 8.2784719506       46.4904760059       42.7423225227
N                13.4684091807       47.0182596312       43.5268648486
C                14.8434733150       46.7470481134       43.1309632924
C                15.0951899567       45.2355006065       43.1993526872
O                15.4915460856       44.6037414644       42.2257209326
C                15.8211307167       47.5562518466       43.9907808177
C                17.0484067074       48.0389677001       43.2066936613
C                17.8432143559       49.0383130310       44.0447586293
C                17.9394258325       46.8700170952       42.7957678997
H                13.3209359603       47.5215219137       44.3940408191
H                14.9530744484       47.0136494147       42.0718039028
H                15.2880359522       48.4222891396       44.3871117696
H                16.1471914441       46.9571483967       44.8421810850
H                16.7060785744       48.5455240445       42.2991968622
H                18.6938697312       49.4092837953       43.4795978910
H                17.2243440066       49.8828448774       44.3339064287
H                18.2191011632       48.5610288345       44.9463673387
H                18.7859236752       47.2246690296       42.2134418821
H                18.3237742733       46.3572621831       43.6752548911
H                17.3936604038       46.1494595987       42.1927311388
N                13.2567777068       43.4947449856       40.4344356543
C                13.9298660834       43.6523078369       39.1644053657
C                15.0997272153       42.6822685035       39.0231043291
O                15.2919533947       42.0428065697       37.9919900529
H                13.1081894272       44.3235693341       41.0028805312
H                13.2396598318       43.4640231842       38.3347496839
H                14.3074797788       44.6726040676       39.0961754067
N                13.8698144216       39.1896988406       38.5211670128
C                13.4420970593       39.0924014733       37.1403947467
C                14.6651477529       38.8390337218       36.2657122931
O                14.6979818847       37.9450637251       35.4255296225
C                12.7049269840       40.3693495411       36.7068841886
C                12.4902885278       40.3813011217       35.1952837015
C                11.3648187032       40.4771915509       37.4296258915
H                13.6045971685       40.0143550803       39.0515497697
H                12.7844991198       38.2197615470       37.0185734664
H                13.3382642481       41.2181429707       36.9812170649
H                11.9650985722       41.2868132552       34.9042720143
H                13.4395734074       40.3479686828       34.6663307007
H                11.9009055686       39.5201900387       34.8895761925
H                10.8438148771       41.3723409838       37.1015402266
H                10.7433005733       39.6142147583       37.2041610919
H                11.5014096696       40.5331261925       38.5053575603
N                15.6883804024       39.6731437687       36.4700316511
C                16.8701454850       39.5547814571       35.6474336842
C                17.4078479673       38.1237963146       35.6952602345
O                17.8086230423       37.5842810529       34.6675693095
C                17.9690679275       40.5608765570       36.0491685593
O                18.8580864180       40.0853480668       37.0177367664
H                15.6081099272       40.4566118108       37.1136491166
H                16.5946674579       39.7394766083       34.5995402503
H                18.5768052990       40.7818116258       35.1687374950
H                17.4757175534       41.4857713441       36.3784451742
H                18.3556364960       39.9109903039       37.8407012699
N                15.3341857931       35.6741761418       33.6999829725
C                15.6176725261       35.9001630698       32.2993033126
C                16.9730819755       35.3050170426       31.9177051869
O                17.0875294299       34.6219553637       30.9012701827
C                15.5593780520       37.3936665096       31.9700218028
C                14.1714773986       37.8729491769       31.5240395636
C                13.0855378483       37.5190948686       32.5368236384
C                14.2118678844       39.3847415302       31.3066542621
H                15.1899115824       36.4843109758       34.2925495048
H                14.8793437303       35.3523781028       31.6968088437
H                15.8801766794       37.9491080415       32.8522825508
H                16.2695405891       37.6061666990       31.1695308667
H                13.9383330784       37.3858365925       30.5713736799
H                12.1448714704       37.9786973932       32.2445225203
H                12.9350414686       36.4447002778       32.5967367739
H                13.3641168520       37.8817721121       33.5216795395
H                13.3064663023       39.7242961152       30.8120446299
H                14.2881888061       39.8943989125       32.2635446786
H                15.0650030557       39.6689199138       30.6954625774
N                17.9985718683       35.5788811852       32.7156949072
C                19.3064670527       35.0088696271       32.4565704426
C                19.1694948102       33.5059831557       32.1873617568
O                19.7600453350       32.9633421701       31.2586556235
C                20.2384055203       35.2068921909       33.6522266480
C                20.6828260438       36.6619061942       33.8351520433
C                21.5424438743       36.7770035972       35.0818758020
O                22.5459167182       36.0933934747       35.2486591722
N                21.1373679794       37.6680550900       35.9949278653
H                17.8789283716       36.1609998178       33.5384115238
H                19.7324759833       35.4641704101       31.5507604758
H                19.7143049869       34.8623748688       34.5461106822
H                21.1185851420       34.5762794992       33.5176582926
H                21.2821091812       36.9673164944       32.9749698326
H                19.8141353093       37.3109064191       33.9127106805
H                20.3419341646       38.2696690042       35.8589487041
H                21.6894146652       37.8053665017       36.8278099493
N                30.4090525121       43.0837532892       33.9263650936
C                29.3940626465       44.0208494859       34.3602230928
C                29.4779172833       44.2539259421       35.8747296268
O                29.5013086033       45.3800484465       36.3568596862
C                27.9984374649       43.5240184120       33.9490881845
C                27.6442701702       44.0298318563       32.5760254440
C                28.3391971374       43.5841259361       31.4567899091
C                26.6645922562       45.0014377731       32.4170065674
C                28.0768097705       44.1218532126       30.2097879743
C                26.3862999417       45.5239253108       31.1651154720
C                27.1002256467       45.0926922093       30.0610180141
H                30.1054681259       42.2053708685       33.5218881651
H                29.5979777335       44.9987541239       33.8995973337
H                28.0012424219       42.4317936406       33.9807521663
H                27.2692506939       43.8839785685       34.6768599957
H                29.0812370530       42.8092782520       31.5665506473
H                26.1170051851       45.3507190981       33.2815651934
H                28.6452940719       43.7888161765       29.3547913166
H                25.6167926223       46.2738805456       31.0576715319
H                26.8990841888       45.5160259785       29.0896116513
H                22.5591308871       35.8061571227       26.9718447039
H                 6.3153918459       55.5010736162       41.1355466978
H                 9.2383149968       55.8254457024       42.0414513630
H                11.2272278060       56.1565821596       45.4398471658
H                10.4530197358       46.1620988015       45.1283132706
H                14.9360644856       44.7402528079       44.0534069610
H                12.4344962422       43.1550570786       40.2985484996
H                15.7365654358       42.5528686438       39.7831653511
H                13.5351966999       38.4973662825       38.9888277973
H                17.4329563132       37.6278463670       36.5632482646
H                14.5802816190       35.1890865904       33.7794601606
H                18.5881135834       32.9436409541       32.7753814142
H                30.9209994315       43.4671889844       33.2932083837
H                29.5152522144       43.4738904184       36.4993500592
