340
Properties=species:S:1:pos:R:3 pbc="F F F"
N      40.80700000      27.09700000      20.79700000 
C      39.72700000      26.87000000      19.78500000 
C      38.86900000      27.82300000      19.64700000 
O      38.08300000      28.34500000      20.13500000 
C      38.87000000      25.56200000      20.31400000 
C      37.86100000      25.27900000      19.18900000 
O      37.79800000      25.85100000      18.29400000 
O      37.20000000      24.29100000      19.73600000 
H      40.07700000      27.74700000      21.74600000 
H      40.34900000      26.59800000      19.08800000 
H      39.64500000      24.69700000      20.47500000 
H      38.56500000      25.74600000      20.97700000 
N      36.35500000      28.37300000      17.92100000 
C      34.70900000      28.03100000      17.77200000 
C      34.59300000      28.12600000      19.38900000 
O      33.32800000      28.44200000      19.50900000 
C      34.69900000      26.61200000      17.43500000 
C      33.07400000      26.26300000      16.96100000 
C      32.29900000      27.52900000      16.57100000 
C      33.21900000      25.21200000      15.98500000 
H      37.02500000      27.27200000      17.76000000 
H      34.33200000      28.76800000      17.36900000 
H      35.03000000      26.63800000      16.19900000 
H      34.99800000      25.89400000      17.76800000 
H      32.64000000      26.21100000      18.21600000 
H      31.35000000      27.21500000      16.26300000 
H      32.28400000      28.32000000      17.03600000 
H      32.87700000      27.79900000      15.44300000 
H      31.63200000      24.74200000      16.29000000 
H      33.21800000      25.27100000      15.42400000 
H      33.53200000      24.20000000      16.79200000 
N      35.22700000      27.79800000      20.25200000 
C      34.90600000      28.01200000      21.57600000 
C      34.68500000      29.59400000      21.96500000 
O      33.99600000      29.97200000      22.59000000 
C      36.28400000      27.45000000      22.76500000 
C      35.93200000      26.05300000      22.49200000 
C      37.33100000      25.44000000      23.19300000 
N      37.53000000      24.23600000      22.78900000 
C      37.81200000      23.18900000      24.11800000 
N      38.04900000      23.58400000      25.24800000 
N      37.52800000      21.86400000      23.64600000 
H      36.22900000      27.59300000      20.03900000 
H      34.02800000      27.62300000      21.93300000 
H      36.83300000      27.97700000      22.34400000 
H      35.73100000      27.78200000      23.57700000 
H      35.28500000      25.51900000      22.79800000 
H      36.31400000      25.74500000      21.47000000 
H      38.28600000      26.23800000      23.09100000 
H      37.00000000      25.79300000      24.54100000 
H      37.39200000      23.92600000      22.09400000 
H      38.34000000      24.43800000      25.45300000 
H      37.90000000      22.95900000      25.93900000 
H      37.18000000      21.64100000      22.95800000 
H      37.57200000      21.19500000      24.43800000 
N      31.69500000      30.20200000      20.65200000 
C      30.39400000      29.85000000      21.57200000 
C      30.49200000      30.78600000      22.57300000 
O      29.21800000      31.32600000      23.17600000 
C      30.80600000      28.65300000      21.66100000 
C      30.37100000      27.81100000      20.74100000 
C      29.65900000      28.02900000      23.09600000 
C      30.53600000      26.13700000      20.55700000 
H      32.13600000      29.92600000      20.31800000 
H      29.43800000      30.06200000      20.93900000 
H      31.70800000      28.46600000      22.15300000 
H      29.31400000      27.65300000      20.36000000 
H      30.93900000      28.13400000      19.70500000 
H      29.84800000      27.14100000      23.21400000 
H      29.94800000      28.75800000      23.93600000 
H      28.69200000      28.30500000      22.73300000 
H      30.79800000      25.77600000      20.07200000 
H      31.97400000      26.21800000      21.14200000 
H      30.24900000      25.74200000      21.55600000 
N      22.41400000      25.95800000      20.85500000 
C      23.42600000      25.25000000      20.56300000 
C      23.26500000      23.56000000      19.89900000 
O      23.76100000      23.33800000      19.43200000 
C      24.36500000      25.07900000      21.80000000 
C      25.12000000      26.49700000      22.13900000 
C      25.40400000      25.94400000      23.48400000 
C      26.07300000      26.62600000      20.99500000 
H      22.01700000      26.34600000      21.65000000 
H      24.14600000      25.60300000      19.68800000 
H      23.59700000      24.85500000      22.71300000 
H      25.00200000      24.31900000      21.63900000 
H      24.37400000      27.11700000      22.22200000 
H      26.60500000      27.19700000      23.72300000 
H      25.16800000      25.94700000      24.13700000 
H      26.58000000      25.12400000      23.26600000 
H      26.65500000      27.60500000      21.33000000 
H      26.70800000      25.96500000      20.83500000 
H      25.54500000      27.02000000      20.04600000 
N      22.06200000      23.24200000      20.56800000 
C      21.66700000      21.94500000      20.18800000 
C      21.37500000      21.61900000      18.67200000 
O      21.46400000      21.02200000      18.12600000 
C      20.56900000      21.24600000      21.09800000 
C      20.41700000      19.92400000      20.94700000 
C      21.64000000      19.05900000      20.98400000 
C      21.61900000      17.69800000      20.26400000 
N      22.17400000      18.04200000      19.08300000 
H      21.49200000      23.75200000      21.28100000 
H      22.68300000      21.22100000      20.18600000 
H      21.00500000      21.43400000      22.16500000 
H      19.79500000      21.82500000      21.04000000 
H      19.59500000      19.53300000      21.45000000 
H      20.09600000      19.63800000      19.84600000 
H      22.45400000      19.53100000      21.20100000 
H      21.49900000      18.57600000      22.25400000 
H      22.44600000      17.05400000      20.87100000 
H      20.78000000      17.20300000      20.17600000 
H      22.07800000      17.43000000      18.56200000 
H      22.17000000      19.07500000      18.77300000 
H      23.51700000      18.19400000      19.06100000 
N      24.33600000      22.41000000      16.81900000 
C      25.42800000      21.05400000      17.15500000 
C      24.92300000      20.08900000      15.53000000 
O      25.60600000      19.79400000      15.18500000 
C      25.00000000      20.50400000      18.16500000 
C      25.52100000      19.13300000      18.44200000 
O      26.55900000      18.67400000      18.36600000 
O      24.64500000      18.23700000      19.07700000 
H      24.10100000      22.58800000      17.52000000 
H      26.28300000      21.47600000      16.61000000 
H      25.12200000      21.23900000      18.79600000 
H      23.91500000      20.44000000      18.11000000 
N      33.37900000      17.93500000      16.24600000 
C      33.04300000      18.13100000      17.25400000 
C      33.33200000      19.62900000      18.49800000 
O      34.56800000      19.79800000      17.97200000 
C      33.13700000      17.07900000      18.12000000 
C      34.50700000      16.90300000      17.74700000 
C      34.88500000      17.36200000      16.57600000 
H      31.76900000      18.63100000      17.12100000 
H      32.78400000      17.24900000      19.22200000 
H      32.31800000      16.40800000      17.73900000 
H      35.17700000      17.42400000      18.63000000 
H      34.69000000      15.70800000      18.03000000 
H      35.60500000      17.73400000      16.34800000 
H      34.62500000      16.26900000      15.69700000 
N      32.31200000      20.07400000      18.95600000 
C      33.14600000      20.84200000      20.46900000 
C      32.78100000      20.15100000      21.65300000 
O      33.05300000      20.61800000      22.39600000 
C      32.55400000      22.25200000      20.24100000 
C      30.97400000      22.33600000      20.24200000 
C      33.32300000      23.24500000      19.07500000 
C      30.77700000      22.80800000      18.34500000 
H      31.85400000      19.91800000      19.00100000 
H      33.97900000      20.84600000      20.17100000 
H      32.65500000      22.59900000      21.21500000 
H      30.55000000      21.56200000      20.36200000 
H      30.71300000      23.20600000      20.43200000 
H      32.98900000      24.06900000      19.19300000 
H      34.40700000      23.05500000      19.59900000 
H      33.32300000      22.64900000      18.24300000 
H      29.57900000      22.51200000      18.40200000 
H      30.85400000      23.20700000      18.15600000 
H      30.97800000      21.74600000      17.90000000 
N      31.82400000      19.12100000      21.52300000 
C      31.60300000      18.29000000      22.72100000 
C      30.37600000      18.97100000      23.39400000 
O      30.13700000      20.00000000      23.40100000 
C      32.33600000      18.16800000      23.85900000 
O      32.68000000      18.80800000      24.75200000 
H      31.62500000      18.77500000      20.57300000 
H      31.05900000      17.37900000      22.15100000 
H      32.20300000      17.10500000      24.16300000 
H      33.59000000      17.56300000      22.98800000 
H      33.02200000      19.79500000      23.92300000 
N      29.38400000      18.44500000      24.01600000 
C      28.69000000      18.60000000      24.56000000 
C      28.82900000      19.19300000      26.22100000 
O      28.58100000      20.25200000      26.71800000 
C      27.26600000      17.71400000      24.88500000 
C      26.01900000      18.45600000      25.59600000 
C      27.77000000      16.44200000      25.71500000 
C      24.93300000      17.64700000      25.46500000 
H      29.44100000      17.29000000      23.86500000 
H      28.08600000      19.54300000      24.35600000 
H      27.11600000      17.46100000      24.01500000 
H      26.29100000      18.59800000      26.64200000 
H      25.95100000      19.28400000      25.17100000 
H      27.00800000      15.82200000      25.74300000 
H      28.65900000      16.05200000      25.31600000 
H      27.86300000      16.71500000      26.78000000 
H      23.96900000      18.14300000      25.76900000 
H      24.70200000      17.27100000      24.37500000 
H      24.91000000      16.58600000      26.10100000 
N      29.89800000      18.55600000      26.56900000 
C      30.40900000      18.68900000      28.19800000 
C      31.22500000      20.21100000      27.93100000 
O      31.08000000      21.00500000      28.68600000 
C      31.16200000      17.85100000      28.41800000 
C      30.62500000      16.53800000      28.64300000 
C      31.45000000      15.50400000      29.37800000 
N      31.09800000      14.12200000      29.44800000 
C      31.59900000      13.27400000      29.83300000 
N      32.79900000      12.71400000      30.10200000 
N      31.12900000      11.87600000      29.58500000 
H      30.33600000      17.70200000      26.27300000 
H      29.71300000      19.05600000      28.62000000 
H      32.18600000      17.68700000      27.85900000 
H      31.82500000      18.27700000      29.62900000 
H      29.69800000      16.63000000      29.34400000 
H      30.37700000      16.07000000      27.90000000 
H      32.73300000      15.41800000      28.84000000 
H      31.79500000      15.80900000      30.53200000 
H      29.87900000      14.09000000      29.12000000 
H      33.34200000      14.13600000      30.42000000 
H      33.31700000      12.38800000      30.36200000 
H      30.10000000      11.73000000      29.19500000 
H      31.37400000      11.05300000      29.80100000 
N      31.99900000      20.46500000      26.98800000 
C      32.61100000      21.42300000      26.68200000 
C      31.74700000      22.45300000      26.01900000 
O      32.26100000      23.87500000      26.60000000 
C      34.12500000      21.32300000      26.24900000 
C      34.86900000      20.18100000      26.84800000 
C      36.22500000      20.15400000      26.32900000 
O      36.95500000      20.84500000      26.31800000 
N      36.66100000      18.68200000      25.93200000 
H      32.01200000      19.63700000      26.18600000 
H      32.99600000      21.90800000      27.94600000 
H      33.98200000      21.09900000      25.00000000 
H      34.68700000      22.20900000      26.15900000 
H      34.80600000      20.38800000      27.83800000 
H      34.25800000      19.34000000      26.76400000 
H      35.94800000      18.08700000      26.02800000 
H      37.52000000      18.63400000      25.69200000 
N      31.09100000      22.28500000      25.44900000 
C      29.87300000      23.51100000      25.18400000 
C      29.48600000      24.06400000      26.43400000 
O      29.17500000      25.17300000      26.78700000 
C      28.93800000      23.26900000      24.32800000 
C      29.13200000      23.23600000      22.90300000 
S      27.92700000      22.96300000      21.75300000 
C      27.04300000      21.45400000      22.36200000 
H      30.77900000      21.67700000      25.11600000 
H      30.52700000      24.33400000      24.90100000 
H      28.39700000      21.95200000      24.68100000 
H      27.96800000      23.81500000      24.37600000 
H      29.78600000      23.95900000      22.54300000 
H      29.96000000      22.12800000      22.59200000 
H      26.00400000      21.36500000      21.78400000 
H      27.43700000      20.81600000      22.51300000 
H      26.48500000      21.83800000      23.42500000 
N      29.03200000      23.02700000      27.24100000 
C      28.42300000      23.08600000      28.66500000 
C      29.20600000      24.60600000      29.40300000 
O      29.03200000      25.13400000      29.91900000 
C      27.89500000      22.31600000      29.46900000 
H      28.93300000      22.13600000      27.16700000 
H      27.35300000      24.13400000      28.43800000 
H      27.38700000      22.36400000      30.19500000 
H      27.45500000      21.47900000      28.68500000 
H      28.84400000      21.63400000      29.74900000 
N      30.47800000      23.71600000      29.39100000 
C      31.59200000      24.62400000      30.20200000 
C      31.82500000      25.81100000      29.58600000 
O      31.80200000      27.00900000      30.44900000 
C      32.72200000      23.86600000      29.91000000 
C      34.13900000      24.25200000      30.81000000 
C      34.90300000      25.38700000      29.89000000 
C      34.54200000      24.07600000      31.66700000 
C      36.10700000      26.11000000      30.10700000 
C      35.94200000      24.36800000      32.64300000 
C      36.49600000      25.46000000      31.45900000 
O      37.56800000      25.85800000      31.84900000 
H      30.79500000      22.94500000      28.98300000 
H      31.36900000      24.65800000      31.17300000 
H      32.69900000      22.64700000      30.51400000 
H      33.04600000      23.50000000      28.94000000 
H      34.45500000      25.63900000      28.85800000 
H      34.06500000      23.14000000      32.43100000 
H      36.43500000      26.55000000      29.83500000 
H      36.14500000      24.15600000      33.15700000 
H      37.97300000      25.69000000      32.90000000 
N      32.00000000      26.05000000      28.25100000 
C      32.49700000      27.34600000      27.68600000 
C      31.09300000      28.31700000      27.95100000 
O      31.35300000      29.52300000      27.82700000 
C      33.28500000      27.44300000      26.57300000 
C      34.15100000      26.55100000      26.38600000 
C      32.19300000      26.65100000      25.33300000 
H      32.01000000      25.19100000      27.65300000 
H      33.13600000      27.83200000      28.47900000 
H      33.15500000      28.47500000      26.25600000 
H      34.83800000      26.70500000      25.53700000 
H      35.01200000      27.03100000      27.12200000 
H      34.28000000      25.69500000      26.61700000 
H      32.56300000      26.91800000      24.33300000 
H      32.00800000      25.82400000      25.37200000 
H      31.08500000      27.28900000      25.35500000 
N      30.18800000      27.52200000      27.73100000 
C      28.63500000      28.69400000      28.00600000 
C      28.65600000      29.08700000      29.50600000 
O      28.41600000      29.95000000      29.51200000 
C      27.57600000      27.63100000      27.49400000 
O      26.41400000      28.47000000      27.81500000 
H      29.94900000      26.73000000      27.79100000 
H      28.88700000      29.20200000      27.38200000 
H      27.70800000      27.34900000      26.41400000 
H      27.61300000      26.66200000      28.15100000 
H      26.32400000      29.24000000      27.28400000 
N      23.37400000      21.70500000      31.05600000 
C      23.64500000      21.05200000      30.11800000 
C      23.08000000      19.76500000      30.22300000 
O      22.38000000      18.94000000      29.50200000 
C      24.76300000      21.11800000      29.05700000 
C      24.81400000      22.47400000      28.15700000 
C      24.68200000      23.64600000      28.94200000 
C      25.15300000      22.56100000      27.08200000 
C      24.76900000      24.87400000      28.27000000 
C      25.38500000      23.49600000      26.40500000 
C      25.23100000      24.84900000      26.72900000 
H      24.60800000      22.40600000      31.49700000 
H      22.48000000      21.53000000      29.30400000 
H      25.51900000      21.05700000      29.72800000 
H      24.67500000      20.37400000      28.38600000 
H      24.34400000      23.80100000      30.01800000 
H      25.36900000      21.45600000      26.50200000 
H      24.73000000      25.68700000      28.58600000 
H      25.73000000      23.55900000      25.14300000 
H      25.38200000      25.75300000      26.24700000 
H      41.14102917      26.30466547      21.06276400 
H      38.83439511      28.34511637      18.79482807 
H      36.59547752      28.97160795      17.29343400 
H      35.27412160      30.29481469      21.56276311 
H      31.44150984      30.71389298      19.95650858 
H      31.39140930      31.09273324      22.88441232 
H      22.45964016      26.74261884      20.41649087 
H      20.93532144      22.30247459      18.08929489 
H      24.79403294      23.07197779      16.41651865 
H      23.96140195      20.02999229      15.26195659 
H      32.66625965      17.84590799      15.70372350 
H      28.90520999      28.40863240      30.19716696 
H      22.73940572      22.30284098      30.83267005 
H      23.19089685      19.23744959      31.06525439 
