69
Properties=species:S:1:pos:R:3 pbc="F F F"
N      20.57700000      31.41100000      25.00300000 
C      19.74600000      32.19100000      25.87300000 
C      20.48300000      32.70600000      27.08600000 
O      21.34300000      32.03800000      27.68900000 
C      18.58500000      31.34000000      26.36200000 
C      17.64400000      30.96100000      25.24000000 
C      16.40700000      30.31200000      25.81100000 
N      15.56200000      29.85500000      24.72500000 
C      14.50200000      29.08400000      24.89300000 
N      14.09200000      28.79200000      26.11700000 
N      13.85300000      28.59300000      23.85100000 
H      20.51500000      30.42000000      25.06400000 
H      19.36500000      33.03500000      25.32500000 
H      18.98100000      30.44600000      26.82200000 
H      18.05200000      31.89200000      27.12100000 
H      17.36700000      31.84100000      24.67600000 
H      18.13100000      30.27100000      24.56700000 
H      16.69400000      29.46500000      26.41800000 
H      15.87000000      31.01400000      26.43100000 
H      15.88200000      29.99800000      23.79800000 
H      14.57800000      29.11800000      26.91700000 
H      13.26600000      28.26200000      26.26300000 
H      14.15100000      28.83900000      22.93700000 
H      13.27000000      27.76600000      23.94900000 
N      20.06300000      33.88800000      27.51100000 
C      20.42900000      34.44100000      28.77800000 
C      20.12400000      33.46900000      29.88300000 
O      19.18000000      32.67300000      29.83600000 
C      19.65900000      35.74100000      29.00600000 
C      18.15400000      35.57800000      29.12300000 
C      17.42500000      35.20300000      27.85200000 
O      17.97700000      35.48000000      26.73600000 
O      16.29700000      34.66200000      27.97600000 
H      19.39000000      34.40400000      26.97700000 
H      21.48700000      34.65300000      28.80300000 
H      20.03600000      36.19000000      29.91300000 
H      19.89000000      36.40400000      28.18700000 
H      17.89800000      34.85400000      29.87700000 
H      17.73600000      36.52600000      29.44200000 
N      20.93200000      33.54500000      30.94400000 
C      20.77000000      32.69700000      32.08700000 
C      21.41400000      31.34700000      31.93000000 
O      21.35600000      30.53600000      32.86800000 
H      21.67900000      34.19800000      30.94700000 
H      21.21100000      33.16800000      32.95000000 
H      19.72400000      32.53500000      32.28900000 
N      22.03100000      31.10300000      30.78300000 
C      22.71400000      29.87800000      30.49700000 
C      24.07500000      30.19900000      29.94100000 
O      24.37100000      31.34300000      29.56900000 
C      21.93200000      29.04200000      29.48200000 
C      20.58300000      28.65000000      29.99900000 
C      20.44500000      27.64500000      30.94700000 
C      19.44600000      29.29100000      29.54700000 
C      19.20100000      27.28000000      31.42000000 
C      18.19000000      28.92900000      30.00400000 
C      18.07600000      27.92000000      30.93500000 
O      16.85600000      27.51500000      31.42700000 
H      22.04400000      31.79500000      30.07100000 
H      22.82000000      29.33000000      31.41700000 
H      21.81900000      29.63500000      28.58800000 
H      22.50700000      28.16100000      29.23800000 
H      21.31700000      27.15100000      31.32500000 
H      19.54200000      30.08900000      28.84600000 
H      19.08900000      26.51200000      32.15600000 
H      17.31400000      29.42500000      29.63700000 
H      16.11100000      27.95800000      31.03200000 
H      20.38100275      31.60539215      24.14638061 
H      24.76617345      29.48034823      29.86471834 
