 542 
 
N                19.8408089377       31.2046409630       29.0038275678
C                20.7093182206       30.0417768397       29.0631832989
C                20.0467627601       28.8789782444       28.3129365686
O                20.6428861490       28.2547948530       27.4419968989
C                20.9800241759       29.6940043388       30.5263808790
C                21.5907134732       28.3078242856       30.7209227922
C                22.1491793989       28.1647300980       32.1341067187
N                23.4356050170       28.8285380494       32.2253883920
C                23.9829275940       29.3839389702       33.3020775306
N                23.3028426015       29.6020707182       34.4160553168
N                25.2908846649       29.6775104316       33.2477467904
H                19.6456780104       31.6970447103       29.8706781185
H                21.6503382180       30.2512548498       28.5363653070
H                21.6474519628       30.4518501472       30.9381486478
H                20.0365351309       29.7346639506       31.0711060615
H                20.8316843823       27.5403378694       30.5668051845
H                22.3809707220       28.1342777879       29.9889005638
H                21.4522306921       28.5976467002       32.8522173138
H                22.2705784186       27.1034053720       32.3711023855
H                24.0301720270       28.6852801327       31.4185078399
H                22.2707711654       29.6146054025       34.4527786130
H                23.7552128783       30.0872608766       35.1746277500
H                25.7996859003       29.5738635455       32.3851190368
H                25.7618911122       30.1252496234       34.0168028097
N                18.7898490671       28.6169465186       28.6710483413
C                18.0319148980       27.5505053218       28.0452906699
C                17.9389081777       27.7711688069       26.5348997133
O                18.1750874919       26.8729475289       25.7329792609
C                16.6168548137       27.4919682694       28.6317228988
C                15.7172691706       26.6155491134       27.7996123249
C                15.8658651000       25.2339035718       27.7876804972
C                14.7234284110       27.1902730410       27.0169381907
C                15.0194229026       24.4401728219       27.0329248482
C                13.8742051694       26.4003001387       26.2629153645
C                14.0143540968       25.0227694517       26.2785852356
H                18.3617377770       29.1208517638       29.4393499416
H                18.5568388320       26.5975374280       28.1958631673
H                16.6763646576       27.1227846034       29.6577482057
H                16.2200891080       28.5083589036       28.6549603354
H                16.6399417779       24.7597728154       28.3738564140
H                14.6139206709       28.2651114726       27.0149190613
H                15.1563491415       23.3685909432       27.0556632590
H                13.0969166065       26.8627808270       25.6742605801
H                13.3302207554       24.4061535369       25.7180996481
N                19.8379058632       29.4305284145       24.6479970468
C                21.1294097532       29.2427749542       24.0272610452
C                21.4045033686       27.7500869228       23.8570093117
O                21.7952570096       27.3118407470       22.7789201770
C                22.2326312191       29.9522302956       24.8087882991
C                23.5466921078       30.0281767328       24.0717420711
C                23.6194453204       30.1999677204       22.6943661423
C                24.7405094294       29.9822577498       24.7806941594
C                24.8326230678       30.3026754555       22.0473327469
C                25.9653105693       30.0992331135       24.1455861612
C                26.0218352550       30.2550303824       22.7660759724
O                27.1885950404       30.3357666935       22.0756544169
H                19.7951222735       29.9307861194       25.5291356043
H                21.0689872913       29.6529065101       23.0107167741
H                21.8828651761       30.9699497205       25.0077081178
H                22.3665978670       29.4509693864       25.7696643835
H                22.7253242879       30.2611610109       22.0973278253
H                24.7067173705       29.8584847432       25.8526388372
H                24.8798052677       30.4171930944       20.9760296212
H                26.8845813398       30.0635362286       24.7120823592
H                27.9404697897       30.5898318051       22.6522566914
N                21.1540549698       26.9716578341       24.9090459546
C                21.2412358217       25.5270922286       24.7916442082
C                20.5128589674       25.0639056705       23.5251482764
O                21.0555431219       24.3411314950       22.6904132572
C                20.6155213939       24.8279138359       26.0111646851
C                20.1288078491       23.4520806658       25.6312565354
C                21.0215139769       22.4166317261       25.3892276907
C                18.7737037761       23.2071392033       25.4490884440
C                20.5849553336       21.1892532156       24.9287519804
C                18.3257989657       21.9827678838       24.9991801279
C                19.2285488962       20.9619779329       24.7084991564
O                18.7508635171       19.8041885508       24.1945251325
H                20.8648840298       27.3705338600       25.7983692559
H                22.2907966455       25.2251552459       24.6739674579
H                21.3535162225       24.7768709913       26.8132705043
H                19.7677203558       25.4264756245       26.3443563368
H                22.0776115259       22.5725804733       25.5580352815
H                18.0607865377       23.9852889046       25.6733640492
H                21.2882180239       20.3856073293       24.7490357579
H                17.2744470068       21.7725983164       24.8998027912
H                19.3949200321       19.0687504803       24.3775419546
N                22.2368996241       26.0345116163       20.3784359044
C                23.4613870880       25.2873881625       20.2371510931
C                23.1786944454       23.8454746916       19.8184156748
O                24.0065315732       23.2355427799       19.1385423400
C                24.2957074501       25.2987561951       21.5164523511
C                24.9740250567       26.6415659432       21.8161217623
C                25.6515622845       26.5556302520       23.1808106681
C                26.0157363748       27.0203086016       20.7665156443
H                21.9707046153       26.3372494301       21.3106542954
H                24.0434604592       25.7121130480       19.4087524697
H                23.6336730272       25.0303409534       22.3433616636
H                25.0607164391       24.5230552468       21.4244192548
H                24.2018517189       27.4159398998       21.8538393980
H                26.1361631353       27.4985952065       23.4140132994
H                24.9181195142       26.3432232255       23.9538320501
H                26.4006981998       25.7666219725       23.1711217583
H                26.4982535400       27.9514721427       21.0516163948
H                26.7741218800       26.2432667399       20.6926302070
H                25.5713352510       27.1612672486       19.7845315487
N                22.0143708616       23.3252463898       20.2037088665
C                21.6025058225       22.0002968770       19.7829308349
C                21.2242886636       22.0275304974       18.2932119069
O                21.6901647644       21.2196201553       17.4914393836
C                20.4243616697       21.5031047642       20.6160224323
C                20.0836420303       20.0531989256       20.2697027555
C                21.0673826961       19.0830280605       20.9247792297
C                20.9240217687       17.6523070735       20.4307849065
N                21.4339261044       17.4771025489       19.0497575371
H                21.4929146511       23.7624122446       20.9604804410
H                22.4587006580       21.3184689018       19.8678365705
H                20.6844238055       21.5774046275       21.6743826564
H                19.5759550735       22.1586069883       20.4204612723
H                19.0809846750       19.8217682630       20.6254917552
H                20.0941346452       19.9324635169       19.1846397041
H                22.0950178708       19.4052429686       20.7504278051
H                20.8931686569       19.0833927814       22.0029896207
H                21.5042443047       16.9973674107       21.0818365582
H                19.8746539688       17.3583938356       20.4654720388
H                21.3543061931       16.4940641463       18.7765541488
H                20.9047196433       18.0279734993       18.3278856149
H                22.4418759443       17.7580620041       18.9663652583
N                31.9078225065       18.5536707948       21.3581068708
C                31.2899126477       17.7569700926       22.4036216569
C                30.0847227901       18.5361809488       22.9726813444
O                29.7601978166       19.6253454463       22.5343884485
C                32.2966781901       17.4192774278       23.5307678274
O                32.3877910228       18.4387707120       24.4904691862
H                31.7271823081       18.2686184740       20.4065797090
H                30.9349693888       16.8336630672       21.9397061087
H                31.9885264624       16.5142603011       24.0559790283
H                33.2717411394       17.2341832067       23.0623762896
H                32.5447830559       19.2668941382       23.9779911207
N                29.4902763517       17.9315971615       24.0114196571
C                28.4607932435       18.5609595414       24.8061828803
C                29.0275499731       19.1174759455       26.1189123442
O                28.6461867360       20.1934128292       26.5619855788
C                27.2647363439       17.6050024187       25.0154066309
C                26.0248041264       18.4033375713       25.4312165065
C                27.5735765167       16.4845942509       26.0061283052
C                24.7457849470       17.5786052334       25.3460365534
H                29.7577589374       16.9857267375       24.2351319397
H                28.1160087016       19.4293538364       24.2324312598
H                27.0604560026       17.1630517446       24.0337954365
H                26.1541997681       18.7848625295       26.4465210414
H                25.9241173038       19.2661245324       24.7690514992
H                26.7442644656       15.7835548826       26.0270691628
H                28.4616862434       15.9308318606       25.7134034953
H                27.7024492125       16.8858142554       27.0079519441
H                23.8748909150       18.2136214150       25.4956046675
H                24.6546954542       17.1114562799       24.3683436889
H                24.7241759591       16.8009763743       26.1046706091
N                29.9448001160       18.3640393102       26.7383593425
C                30.4793484536       18.7181867776       28.0414704895
C                31.3009537904       20.0032637964       27.9507346230
O                31.2382848401       20.8801057654       28.8011139139
C                31.3914705363       17.6164040807       28.5887613255
C                30.6368810547       16.3502511220       29.0029262156
C                31.6015531755       15.3793198040       29.6828286441
N                30.9064841169       14.1605395010       30.0624495590
C                31.5062325998       13.0787017105       30.5494428635
N                32.8272893241       13.0486337167       30.7079052565
N                30.7893192743       11.9842887878       30.8000667346
H                30.2140741962       17.4695250037       26.3581861930
H                29.6504616618       18.9118480239       28.7334678975
H                32.1487340651       17.3783690145       27.8398136865
H                31.8973555211       18.0236325378       29.4651921622
H                29.8313052744       16.6111965525       29.6915915022
H                30.1897948447       15.8690330008       28.1332152143
H                32.4039065618       15.1224222419       28.9851400719
H                32.0280081766       15.8607433443       30.5697595706
H                29.8968480653       14.1841734007       30.0387401939
H                33.3791681323       13.8896137176       30.6550889487
H                33.2709326618       12.2326029811       31.0964826525
H                29.7849008980       11.9891039672       30.7228859296
H                31.2152448439       11.1725629177       31.2158220161
N                31.2709319050       22.2582144901       25.5005109692
C                30.3615027243       23.3611963713       25.2450450212
C                29.8221069056       23.8843399668       26.5838867440
O                29.8951665221       25.0628231634       26.8967457287
C                29.1643746109       22.9801366701       24.3748394949
C                29.5042794279       22.9222845278       22.8909130020
S                28.0418752616       23.2456622320       21.8354846697
C                27.1511146707       21.6872970499       22.0590790286
H                31.0838504497       21.3684009051       25.0643777557
H                30.9069738100       24.1906959008       24.7784152586
H                28.7478641237       22.0296824748       24.7126729641
H                28.4006034491       23.7484985865       24.5209610357
H                30.1986977320       23.7170215443       22.6250311564
H                29.9157742518       21.9597397980       22.5956843519
H                26.3744604601       21.6391681485       21.3005890119
H                27.8459860513       20.8633250666       21.9279307619
H                26.6950470136       21.6610744839       23.0447913358
N                29.2673759315       22.9508808192       27.3583119436
C                28.6274562243       23.2969411284       28.6148076315
C                29.5893348826       24.1427710467       29.4524607356
O                29.2359579146       25.1846231064       29.9943443554
C                28.2370692484       22.0156979038       29.3361420006
H                29.1251564177       21.9997092872       27.0322365855
H                27.7310114861       23.9048633601       28.4249532655
H                27.5982012657       22.2450683062       30.1828068187
H                27.6819779145       21.3806136946       28.6507844834
H                29.1212008490       21.4805719981       29.6742138051
N                30.4199695747       27.5448457475       28.1155357841
C                29.1569307615       28.2555207285       28.0882164302
C                28.8670306849       28.8396066311       29.4766274455
O                28.6285808872       30.0279480230       29.6580280770
C                27.9996600995       27.3183743357       27.6854844504
O                26.7466371670       27.8773486822       27.9688022162
H                30.4022212948       26.5296752868       28.0592037050
H                29.2340816850       29.0978563801       27.3893322680
H                28.0982123583       27.0451347555       26.6292916753
H                28.0611757003       26.4073041652       28.2823139452
H                26.5848237964       28.6394116880       27.4000278438
N                27.2788023266       26.1472211437       36.8053884194
C                25.8862222304       26.0491685099       36.4229147593
C                25.7460235596       25.6182757560       34.9666578747
O                24.8223637793       24.8858393358       34.6317243220
C                25.1484455396       27.3783646091       36.6199895549
C                24.7404337301       27.6377275568       38.0379668398
C                24.3697289761       26.7243755921       38.9848565587
C                24.6017060316       28.9232804526       38.6474013849
N                24.0182397757       27.3573964054       40.1419545785
C                24.1529340017       28.7013542912       39.9752403877
C                24.8115067729       30.2354376743       38.2221018638
C                23.9532056502       29.7463115235       40.8702658523
C                24.6272739355       31.2635475593       39.1181498843
C                24.2102037326       31.0275375501       40.4317581360
H                27.6001037467       27.0178873128       37.2234100165
H                25.4094818335       25.2561140525       37.0090229725
H                25.8070438267       28.1728294320       36.2683924465
H                24.2526171637       27.3509267983       35.9925547023
H                24.3497125231       25.6533144080       38.9388384991
H                23.6923740355       26.8880073085       40.9698482885
H                25.1245467190       30.4491844687       37.2117386730
H                23.6106304865       29.5550797689       41.8763210571
H                24.7972783279       32.2823424024       38.8090169849
H                24.0896069906       31.8663402485       41.1026705462
N                26.6031685569       26.1489536476       34.0920819623
C                26.5418469324       25.7534835397       32.7007778639
C                26.7667571943       24.2509352273       32.5417953534
O                25.9989740297       23.5434562368       31.9009261724
H                27.3216396671       26.7998034273       34.3911304003
H                25.5543760170       25.9787665282       32.2875278695
H                27.3083656365       26.2773915756       32.1345978605
N                27.8584164065       23.7836146364       33.1498274251
C                28.1702538532       22.3669987758       33.1185567232
C                26.8910195560       21.5802047432       33.4421143928
O                26.4440608038       20.7033498062       32.7124946991
C                29.3024643845       22.0151382429       34.0938922754
C                29.5143636418       20.5017336293       34.1039215381
C                30.5952164445       22.7220831158       33.6849655449
H                28.4773561710       24.4090869706       33.6499187759
H                28.4698575936       22.0848418173       32.1024314181
H                29.0047602585       22.3520827461       35.0905625731
H                30.3314562687       20.2343996082       34.7671395954
H                28.6237963217       19.9718889689       34.4342158075
H                29.7560743128       20.1525242499       33.1032961732
H                31.4012968242       22.4225784669       34.3486445374
H                30.8649633749       22.4408775032       32.6700935549
H                30.4967935137       23.8040540837       33.7359909090
N                26.3408089059       21.9361522922       34.6087066251
C                25.2231928123       21.2063930523       35.1650448212
C                24.0202831161       21.3040621444       34.2228027002
O                23.3154664736       20.3340625620       33.9613267627
C                24.8590441938       21.7412166383       36.5586226506
C                23.6471047262       20.9941468029       37.1065964590
C                26.0327425824       21.5986798085       37.5263046124
H                26.7673743155       22.6703269758       35.1625887813
H                25.4848850133       20.1387287896       35.2218314742
H                24.6131961868       22.8020454220       36.4443093247
H                23.3585457726       21.4162952241       38.0634639089
H                22.8067993759       21.0517702487       36.4211799334
H                23.8910522816       19.9430484394       37.2468274130
H                25.7239771989       21.9083654259       38.5214516112
H                26.3592232294       20.5615259270       37.5718644754
H                26.8750744246       22.2118470269       37.2216266405
N                23.7564097913       22.5334953184       33.7890158370
C                22.5658298015       22.8399833676       33.0248543265
C                22.4216869956       21.8607289409       31.8694041864
O                21.4076770891       21.1955332090       31.6913329383
C                22.6383324025       24.2741539337       32.4812810342
C                21.3521538718       24.6065254513       31.7758115218
C                21.1622126184       24.2708082026       30.4403187444
C                20.3109361910       25.1975474630       32.4806373338
C                19.9319407382       24.4693074095       29.8371064551
C                19.0947730517       25.4362581061       31.8670587613
C                18.8960872203       25.0442506904       30.5548440026
H                24.3188613207       23.3335212606       34.0753139833
H                21.6766422387       22.7213253148       33.6609274492
H                22.8002270680       24.9340875981       33.3338290354
H                23.4872846499       24.3503104196       31.8013033251
H                21.9724444869       23.8392684352       29.8696041796
H                20.4472662434       25.4621680106       33.5182411230
H                19.7789103969       24.1586423049       28.8135696746
H                18.2988000198       25.9086439547       32.4189353998
H                17.9292420254       25.1713023611       30.0959753816
N                23.4710878726       21.8418775579       31.0419983475
C                23.4406973911       21.0409746818       29.8399854414
C                23.1611534297       19.5848714694       30.2021362825
O                22.2772253235       18.9349342249       29.6505778163
C                24.7605263725       21.1559973231       29.0669626925
C                24.8083053933       22.4186797536       28.2456262754
C                25.0531317979       23.6501383997       28.8433822252
C                24.5820917502       22.3713105020       26.8754286589
C                25.0552393174       24.8108246032       28.0891407411
C                24.5960901776       23.5300692855       26.1159504260
C                24.8234766567       24.7519764938       26.7254245550
H                24.3242804300       22.3311245676       31.2867362485
H                22.5998699199       21.3663313656       29.2091630553
H                25.5758128607       21.1236465708       29.7913876277
H                24.8462555352       20.2899130265       28.4080128763
H                25.2716929591       23.6986513277       29.8977794639
H                24.3996814460       21.4183451367       26.3971810582
H                25.2573622843       25.7635961064       28.5529766263
H                24.4322233149       23.4787328414       25.0474441972
H                24.8297824863       25.6566956582       26.1377133964
N                23.9620537909       19.0614739382       31.1344612809
C                23.8419705454       17.6484739019       31.4473557534
C                22.4061416967       17.3375720753       31.8710713409
O                21.7431926830       16.4499138146       31.3452779950
C                24.8220301954       17.2029936749       32.5216137436
C                24.9393979942       15.6446014370       32.4245158884
O                25.5695645649       15.1930462881       31.4581908113
O                24.3808948015       14.9777533978       33.3191750982
H                24.6810774500       19.6067213749       31.5929532316
H                24.0338848977       17.0755117003       30.5265793845
H                25.8011953314       17.6410474610       32.3226153942
H                24.4768735683       17.4981967074       33.5115032930
N                21.9658017442       18.0686206769       32.8964146986
C                20.6568339639       17.8708244297       33.4860681273
C                19.5507860032       17.9334695463       32.4303589965
O                18.6358747698       17.1162165703       32.4133764010
C                20.4076089653       18.9328442072       34.5497880788
H                22.5111065859       18.8561760997       33.2329245769
H                20.6175233968       16.8637963840       33.9225570488
H                19.4005428135       18.8407255271       34.9454968393
H                21.1262487543       18.8259302663       35.3565514737
H                20.5216906975       19.9193148853       34.1083151481
N                19.6422057849       18.9710242063       31.6004283950
C                18.7030436831       19.1906001872       30.5214843106
C                18.4995472248       17.8885245729       29.7453486734
O                17.3808030948       17.4311926572       29.5396098793
C                19.2239270586       20.3078348652       29.6246344650
S                17.9826171006       20.8705747062       28.4206673409
H                20.4180101493       19.6214249708       31.6639096691
H                17.7215189794       19.4751727818       30.9283906271
H                19.4831487575       21.1722379587       30.2360101323
H                20.0999120594       19.9782281034       29.0685218619
H                18.2523896726       19.9653551230       27.4933320501
N                19.6212961574       17.2655370101       29.3764399771
C                19.5468283744       16.1414225491       28.4705724371
C                19.0875669639       14.8730385978       29.1938745244
O                18.4730525861       13.9900654401       28.6070407146
C                20.8721552418       15.8983292930       27.7542211062
C                21.4035093484       17.1285895493       27.0122025109
C                20.3458306794       17.9160988063       26.1965968717
O                19.4452671902       18.5079629827       26.8192628458
O                20.4996430168       17.9420733991       24.9516134988
H                20.5144928690       17.7224611553       29.4935977566
H                18.7680056294       16.3564162000       27.7233827691
H                21.6172228899       15.5829533908       28.4907249968
H                20.7115645461       15.0826163818       27.0460052083
H                21.8275317381       17.8350960641       27.7292697631
H                22.1898664964       16.8160997985       26.3252414874
N                19.4012203142       14.8109057737       30.4915668448
C                18.8646419424       13.7877334244       31.3582048176
C                17.3320785836       13.8759772164       31.4897126016
O                16.7021647731       12.9470151093       31.9732167597
C                19.4024626323       13.9337380134       32.7855819758
C                20.9219062189       13.8744508954       32.9222694455
C                21.5157865245       12.4723286280       32.8263459365
N                22.9111521568       12.5761343776       33.2048462468
C                23.6577484255       11.6383038360       33.7613444702
N                23.2117659009       10.3927178898       33.9394203365
N                24.8591392959       11.9900383345       34.2215661731
H                19.9366032307       15.5657325428       30.9032645416
H                19.0934069475       12.8030991816       30.9351656874
H                19.0613029787       14.9098628053       33.1363903071
H                18.9334276613       13.1460563125       33.3776214213
H                21.3827895751       14.5090948581       32.1674300915
H                21.2021247451       14.2851140907       33.8943869488
H                20.9936438221       11.8062891469       33.5182162492
H                21.4138488271       12.0853160933       31.8068226964
H                23.3513280109       13.4983417469       33.0982116751
H                22.3617592319       10.0888459252       33.4948843658
H                23.8120581885        9.6911991102       34.3406744499
H                25.1683616253       12.9353480078       34.0426955342
H                25.5320818742       11.3059875261       34.5230531949
N                16.8011808766       15.0593350879       31.1696302839
C                15.3927108511       15.3779380288       31.2930208269
C                14.9686471686       15.3719261908       32.7614811160
O                13.8074440005       15.2213061818       33.1154096117
C                14.5382801091       14.4315674496       30.4352124265
C                13.1026009324       14.9154304503       30.2560202793
C                12.3459623493       13.9932527885       29.2927623516
N                10.9264006682       14.2913864942       29.2410341003
C                10.3600382582       15.2805069552       28.5531164815
N                11.0807769088       16.0947146362       27.7919004013
N                 9.0374898214       15.4288967512       28.6029709912
H                17.3748523535       15.7655796473       30.7335240501
H                15.2781784780       16.4028512702       30.9214068701
H                15.0363403029       14.3502897424       29.4661361767
H                14.5510238256       13.4433329944       30.8959630514
H                12.6110546182       14.9062043961       31.2276494108
H                13.1140031009       15.9417301979       29.8845891046
H                12.7754456715       14.0489989091       28.2903087664
H                12.4480448940       12.9619322809       29.6310037847
H                10.3352956813       13.7463451130       29.8509120936
H                12.0865425852       16.0598278833       27.7992256466
H                10.6412302929       16.8504663091       27.2936932508
H                 8.4548762893       14.7981628446       29.1289359621
H                 8.5844287877       16.1692594821       28.0942256842
N                15.9523783895       15.5684255067       33.6540705949
C                15.6748918848       15.4488749271       35.0780776800
C                15.3514769381       16.8583440284       35.5938295841
O                16.1226720803       17.5910253148       36.1985610370
C                16.7704745936       14.6416316231       35.7904086304
C                17.9598775264       15.4480234015       36.3183751814
C                19.2537290917       14.6391982936       36.4219506864
N                19.0904329231       13.4303104927       37.2117506578
C                20.0309945147       12.8196837237       37.9279892862
N                21.2440641085       13.3411837626       38.0834129597
N                19.7631946218       11.6322770030       38.4728031138
H                16.8732769587       15.8527989840       33.3470308925
H                14.7429180168       14.8708010148       35.1275386490
H                16.2876625434       14.1281314158       36.6205385829
H                17.1028214144       13.9002503537       35.0594921523
H                18.1601763358       16.2825549329       35.6479705036
H                17.7066394824       15.8598536643       37.2934982493
H                19.5791868585       14.3610209322       35.4171070490
H                20.0010392308       15.2879889354       36.8789101205
H                18.2271146899       12.9312205951       37.0465772693
H                21.4540007561       14.2823626483       37.7915959988
H                21.9020992237       12.9061743210       38.7106269400
H                18.8767457829       11.1737340375       38.3396209252
H                20.4431444884       11.1674076045       39.0524821705
N                14.0983697661       17.2343497148       35.2859838282
C                13.6456371233       18.5994086716       35.4729170777
C                13.9826680548       19.1258793026       36.8642156745
O                14.2949140366       20.3026003474       37.0278029180
C                12.1233213491       18.6972676609       35.2511369051
C                11.7772402358       18.7104871266       33.7855532075
C                11.4370030690       17.5463348675       33.1076577450
C                11.7978338289       19.9082023470       33.0807260023
C                11.1176992067       17.5787134794       31.7646177822
C                11.4811394986       19.9521715069       31.7360632635
C                11.1354700836       18.7827775530       31.0675303814
O                10.8099248294       18.7631210089       29.7481633386
H                13.5558588629       16.6582567979       34.6460596081
H                14.1471956135       19.2747458356       34.7625221941
H                11.6335047755       17.8635717585       35.7544815478
H                11.7759351959       19.6250873816       35.7096601340
H                11.4060245004       16.6023087183       33.6289523939
H                12.0543456129       20.8263482144       33.5897951511
H                10.8377527802       16.6804434306       31.2422423424
H                11.4928297974       20.8994654515       31.2144293022
H                10.8136238817       19.6604021053       29.3896897465
N                16.5055399241       18.8385131400       38.7176688498
C                17.8570465525       19.3606538121       38.8036230277
C                17.9645878138       20.7240537020       38.1173927065
O                18.6237257386       21.6384286568       38.5965591943
C                18.8425790967       18.3699119771       38.1989545125
H                16.3222397645       18.1588075882       37.9834647942
H                18.0889847991       19.5296385824       39.8610566417
H                19.8404657887       18.7990077108       38.2188800739
H                18.8329524893       17.4550352105       38.7855099797
H                18.5631494760       18.1673681708       37.1700461523
N                17.3030257782       20.8354234033       36.9576668372
C                17.1249000059       22.1357333088       36.3325549430
C                16.6184410419       23.1139845687       37.3989589563
O                17.1762816803       24.1814637182       37.6295076206
C                16.1436012844       22.0280982874       35.1646865730
C                15.6271246341       23.3852513122       34.6743900503
C                16.7485099210       24.2179756228       34.0624924754
C                14.5046713957       23.1720653441       33.6612602711
H                16.7177987008       20.0758093392       36.6367554417
H                18.1001043595       22.5097864735       35.9992399610
H                16.6345711104       21.5138173649       34.3370970546
H                15.2877736706       21.4392529062       35.4979686802
H                15.2200081046       23.9388763693       35.5282560544
H                16.3536456826       25.1540412470       33.6737415474
H                17.5032017869       24.4709501660       34.8040453609
H                17.2303817966       23.6840324964       33.2468589395
H                14.1315760757       24.1310726645       33.3119369976
H                14.8709971918       22.6143181252       32.8037164901
H                13.6808495577       22.6307547614       34.1194405971
N                19.1619945569       24.1855391080       39.9182605356
C                20.0499853559       25.1849138908       39.3594122097
C                19.3974828642       26.5685544459       39.3644919830
O                19.9602278975       27.5346637979       39.8802253670
C                20.4804739456       24.7793736494       37.9437152757
C                21.2322963953       25.9176383441       37.2580168458
C                21.3536361330       23.5293309326       38.0097292033
H                18.8763130805       23.4159250121       39.3202290429
H                20.9385711523       25.2680290736       40.0038404878
H                19.5712001176       24.5648547759       37.3730536095
H                21.6354682310       25.5838190283       36.3044010693
H                20.5902875997       26.7751665186       37.0585063115
H                22.0604458458       26.2628311962       37.8742388767
H                21.6781332923       23.2616540293       37.0087053290
H                22.2332305008       23.7238830977       38.6188585193
H                20.8005239923       22.6967255152       38.4334574769
N                29.3505690670       15.3311796761       37.9081428979
C                28.5785438264       15.0220995794       36.7239595421
C                29.4627490817       14.5812558780       35.5571031071
O                29.0904246980       13.7179900983       34.7731092882
C                27.7021894237       16.2045614060       36.2456016118
O                28.4583306727       17.2719238034       35.7394017539
C                26.7318215135       16.6569442785       37.3405119657
H                29.0972418356       16.1379335396       38.4652386695
H                27.9061323720       14.1756957087       36.9310970119
H                27.1151476079       15.8289121548       35.3929372658
H                29.1655494636       17.5092360423       36.3813009942
H                26.0781235653       17.4214836575       36.9286783441
H                26.1192595570       15.8199073496       37.6587407728
H                27.2611687998       17.0641341046       38.1982637881
H                20.2034677266       31.8230081197       28.4596762448
H                17.6794400995       28.6675939150       26.1755971361
H                19.3025021559       29.8946659302       24.0930923372
H                19.5689960455       25.3491649302       23.3585651460
H                22.2880899863       26.7899868588       19.8919827157
H                20.5831832517       22.7152604944       17.9526075880
H                31.6191066735       19.4039927253       21.4180717123
H                31.9164950877       20.1495477174       27.1763252185
H                32.0977579940       22.4800751562       25.2227764496
H                30.5383204729       23.8506735302       29.5712268514
H                30.9270391604       27.8065187204       27.4195417536
H                28.8677261169       28.2438546590       30.2797956122
H                27.4685205421       25.5122798905       37.4143683891
H                13.9504737977       18.5115662340       37.6526210167
H                16.2930492324       18.4264349251       39.4890567229
H                15.8050845628       22.8908490118       37.9362314767
H                19.5558236994       23.7969725939       40.6281300099
H                18.4995035464       26.6994364116       38.9443693154
H                29.3089274389       14.6398177435       38.4828468679
H                30.3613115170       14.9996715319       35.4247630505
