645
Properties=species:S:1:pos:R:3 pbc="F F F"
N      28.61700000      34.02400000      40.09900000 
C      29.03900000      32.69300000      39.52000000 
C      28.54100000      32.55000000      38.23100000 
O      29.16300000      31.97500000      37.26100000 
C      28.71700000      31.52800000      40.44400000 
O      27.36700000      31.16700000      40.30200000 
H      27.94600000      33.96900000      40.82100000 
H      30.16200000      32.70700000      39.43600000 
H      29.32200000      30.63800000      40.10300000 
H      28.92500000      31.75700000      41.43300000 
H      26.68000000      31.87000000      40.59100000 
N      27.30800000      33.00100000      37.83000000 
C      26.74900000      32.96800000      36.59100000 
C      27.70600000      33.65200000      35.60500000 
O      28.04500000      33.22700000      34.63000000 
C      25.35500000      33.47400000      36.58700000 
C      24.87900000      33.66100000      35.09000000 
C      24.42100000      32.55800000      37.31500000 
H      26.72800000      33.41800000      38.69400000 
H      26.77200000      31.88700000      36.23100000 
H      25.33500000      34.45400000      36.99300000 
H      23.85700000      33.94900000      35.07600000 
H      25.44300000      34.41700000      34.56700000 
H      24.97600000      32.73200000      34.58600000 
H      23.43100000      32.97000000      37.32600000 
H      24.38700000      31.62100000      36.80800000 
H      24.73600000      32.43300000      38.31400000 
N      30.72000000      34.35800000      36.01500000 
C      32.00500000      33.62800000      35.92200000 
C      31.85400000      32.46800000      34.88500000 
O      32.79200000      32.26700000      34.11100000 
C      32.40500000      33.07200000      37.25800000 
H      30.30500000      34.33500000      36.91000000 
H      32.74500000      34.27700000      35.51100000 
H      33.36700000      32.56400000      37.18700000 
H      32.49500000      33.87300000      37.94700000 
H      31.64700000      32.38300000      37.63400000 
N      30.74900000      31.82300000      34.92800000 
C      30.62400000      30.75900000      33.95300000 
C      30.52500000      31.42000000      32.52500000 
O      31.16900000      30.92900000      31.59300000 
C      29.36000000      29.86100000      34.16500000 
O      28.14700000      30.56100000      33.81700000 
C      29.33800000      29.27000000      35.47300000 
H      30.04300000      32.00100000      35.58000000 
H      31.44600000      30.13700000      33.89100000 
H      29.43200000      29.11500000      33.33900000 
H      28.02200000      31.40600000      34.25300000 
H      28.48100000      28.61800000      35.56800000 
H      30.23100000      28.65200000      35.62100000 
H      29.28100000      29.95900000      36.22200000 
N      29.76800000      32.46800000      32.44600000 
C      29.64400000      33.18700000      31.16500000 
C      31.03500000      33.48400000      30.56500000 
O      31.25000000      33.25900000      29.36000000 
C      28.91500000      34.50600000      31.36500000 
C      27.51500000      34.33300000      31.66000000 
O      26.87800000      33.24400000      31.52500000 
N      26.84500000      35.40800000      32.11800000 
H      29.26000000      32.89700000      33.18900000 
H      29.11400000      32.54700000      30.45500000 
H      29.38800000      35.05900000      32.05600000 
H      28.96500000      35.04000000      30.39600000 
H      25.91700000      35.40300000      32.33400000 
H      27.34700000      36.27900000      32.21500000 
N      31.84800000      33.94500000      31.36000000 
C      33.20400000      34.32700000      31.02600000 
C      33.92200000      33.15800000      30.33900000 
O      34.81700000      33.40900000      29.44100000 
C      34.01900000      34.69900000      32.27900000 
C      35.31500000      35.25500000      31.85600000 
O      36.37400000      34.49500000      32.26700000 
O      35.47900000      36.28500000      31.26600000 
H      31.60900000      34.15300000      32.36100000 
H      33.20000000      35.15100000      30.29100000 
H      33.44100000      35.53000000      32.72500000 
H      34.02300000      33.89200000      32.90700000 
N      33.62200000      32.00900000      30.74600000 
C      34.30400000      30.73300000      30.30700000 
C      33.38500000      29.80100000      29.67600000 
O      33.60300000      28.62600000      29.76700000 
C      35.08300000      30.11100000      31.47300000 
O      34.16400000      29.45900000      32.35400000 
H      32.83900000      31.82400000      31.45700000 
H      35.02600000      31.11600000      29.59300000 
H      35.73800000      29.43000000      31.05700000 
H      35.52100000      30.82900000      32.02400000 
H      33.74900000      28.65600000      31.86800000 
N      32.43800000      30.22100000      28.77500000 
C      31.61500000      29.34000000      28.10600000 
C      32.25400000      28.84600000      26.86700000 
O      31.62800000      28.62800000      25.82400000 
C      30.27300000      29.91700000      27.89500000 
C      29.54800000      30.06500000      29.17400000 
C      28.09700000      30.58700000      29.16100000 
N      27.59400000      30.52600000      30.51100000 
C      26.29000000      30.20700000      30.79400000 
N      25.40100000      30.03500000      29.83400000 
N      26.03600000      29.99400000      32.13100000 
H      32.23100000      31.22400000      28.81200000 
H      31.45100000      28.46500000      28.72500000 
H      30.30900000      30.90800000      27.41400000 
H      29.68000000      29.34100000      27.24200000 
H      29.45500000      29.02900000      29.64600000 
H      30.12900000      30.62300000      29.87500000 
H      28.13700000      31.63400000      28.83400000 
H      27.57200000      30.04400000      28.47800000 
H      28.16100000      30.73100000      31.24500000 
H      25.59000000      30.25000000      28.94900000 
H      24.50800000      29.75300000      30.11600000 
H      26.69800000      30.13300000      32.76900000 
H      25.09600000      29.81600000      32.34100000 
N      33.42200000      28.49600000      26.86000000 
C      34.28900000      27.76400000      25.92300000 
C      34.10700000      26.32000000      26.25300000 
O      34.98500000      25.64500000      26.73900000 
C      35.76800000      28.18600000      26.08900000 
C      36.15300000      29.45000000      25.47000000 
C      36.00800000      29.42400000      23.99200000 
C      35.44800000      30.66500000      26.14800000 
H      33.94700000      28.48200000      27.92000000 
H      33.86400000      28.07900000      24.96400000 
H      36.01200000      28.06900000      27.06600000 
H      36.26900000      27.36100000      25.57900000 
H      37.21000000      29.56300000      25.71700000 
H      36.52200000      30.39500000      23.52800000 
H      36.50500000      28.61600000      23.53600000 
H      35.05700000      29.48600000      23.68400000 
H      35.94700000      31.58300000      25.80000000 
H      34.46800000      30.69700000      25.78700000 
H      35.49600000      30.60400000      27.15000000 
N      32.87000000      25.81400000      25.98700000 
C      32.61700000      24.44200000      26.54500000 
C      33.69700000      23.47200000      26.01100000 
O      34.03100000      22.62700000      26.79100000 
C      31.18400000      24.19500000      26.31900000 
C      30.23400000      25.13200000      27.05100000 
C      29.38300000      25.82600000      26.44300000 
C      30.35300000      25.26500000      28.47000000 
C      28.43300000      26.73600000      27.15700000 
C      29.55000000      26.04200000      29.17800000 
C      28.65100000      26.75300000      28.50100000 
O      27.74700000      27.56900000      29.28800000 
H      32.16700000      26.36900000      25.64100000 
H      32.81300000      24.49300000      27.54500000 
H      30.87900000      24.15600000      25.28400000 
H      31.00700000      23.11500000      26.62500000 
H      29.26000000      25.80500000      25.38500000 
H      31.18900000      24.59700000      29.00700000 
H      27.78900000      27.30900000      26.62900000 
H      29.66400000      26.13900000      30.24000000 
H      26.96400000      27.86000000      28.79000000 
N      34.09700000      23.59800000      24.72400000 
C      35.19700000      22.90000000      24.28200000 
C      36.21800000      23.87300000      23.59400000 
O      35.86600000      24.98200000      23.23200000 
C      34.69000000      22.13500000      23.08500000 
C      33.58100000      23.08400000      22.45100000 
C      33.24500000      24.03500000      23.64900000 
H      35.69700000      22.31300000      25.02300000 
H      35.34800000      21.78200000      22.39500000 
H      34.12400000      21.24900000      23.52600000 
H      34.08100000      23.63300000      21.68700000 
H      32.76600000      22.58000000      22.09500000 
H      33.40000000      25.05100000      23.37100000 
H      32.22100000      23.95500000      23.87800000 
N      37.43000000      23.45900000      23.36000000 
C      38.20200000      23.94600000      22.26400000 
C      38.58000000      25.43100000      22.47400000 
O      38.47600000      26.23300000      21.52300000 
H      37.78700000      22.54900000      23.82700000 
H      39.08800000      23.38500000      22.11300000 
H      37.60300000      23.94800000      21.37400000 
N      39.08300000      25.71500000      23.63700000 
C      39.54600000      27.10600000      23.97300000 
C      40.99500000      27.20800000      23.77900000 
O      41.72300000      26.37900000      23.41000000 
C      39.13800000      27.40700000      25.38700000 
H      39.28200000      25.07300000      24.26000000 
H      39.00900000      27.79000000      23.25800000 
H      39.14200000      28.42400000      25.59700000 
H      38.11500000      27.04300000      25.58400000 
H      39.76100000      26.91800000      26.06400000 
N      39.92400000      31.82500000      36.47800000 
C      39.43200000      32.87800000      35.60200000 
C      40.48400000      33.31200000      34.66000000 
O      40.85600000      34.47300000      34.55100000 
C      38.81000000      33.98200000      36.37100000 
C      37.49400000      34.44700000      35.85300000 
O      37.18200000      35.68100000      35.56200000 
N      36.52500000      33.48100000      35.73800000 
H      40.89200000      31.77400000      36.68800000 
H      38.66100000      32.45900000      34.98100000 
H      38.67200000      33.71300000      37.40200000 
H      39.44100000      34.88100000      36.37600000 
H      35.65900000      33.70000000      35.38200000 
H      36.78000000      32.56300000      36.02100000 
N      41.02100000      33.70000000      27.36200000 
C      40.63700000      32.72300000      26.27800000 
C      41.17600000      33.15400000      25.00100000 
O      40.67400000      32.80700000      23.91800000 
C      39.18200000      32.42300000      26.31600000 
C      38.15500000      33.66000000      26.43900000 
C      38.00400000      34.16700000      27.76600000 
C      38.54700000      34.73200000      25.37000000 
H      40.81700000      34.64400000      27.20900000 
H      41.15900000      31.87600000      26.54600000 
H      38.97500000      31.88200000      25.39400000 
H      38.94100000      31.75800000      27.13600000 
H      37.23100000      33.21700000      26.10800000 
H      37.15100000      34.74500000      27.87800000 
H      37.95000000      33.34000000      28.54600000 
H      38.87200000      34.80900000      28.08200000 
H      37.78700000      35.51700000      25.47700000 
H      39.47000000      35.13800000      25.61000000 
H      38.51000000      34.36500000      24.39600000 
N      34.26800000      32.11100000      20.52900000 
C      33.94500000      32.17600000      21.95100000 
C      32.68800000      31.68900000      22.30700000 
O      32.49400000      31.03000000      23.38900000 
C      34.08500000      33.63800000      22.34700000 
O      35.37900000      34.06500000      21.95500000 
H      34.55700000      32.88700000      20.09300000 
H      34.73500000      31.62800000      22.52200000 
H      33.31200000      34.20300000      21.82600000 
H      33.93800000      33.74500000      23.41600000 
H      35.44000000      35.10900000      21.94300000 
N      31.63300000      32.01600000      21.51000000 
C      30.26600000      31.56400000      21.97000000 
C      29.26300000      31.62600000      20.85700000 
O      28.09600000      31.92000000      21.12900000 
C      29.85600000      32.48000000      23.18800000 
C      29.04500000      31.60200000      24.17200000 
O      27.89500000      31.85300000      24.51300000 
N      29.77300000      30.58700000      24.63900000 
H      31.75000000      32.52700000      20.79100000 
H      30.32800000      30.61500000      22.31100000 
H      30.66100000      32.85800000      23.67300000 
H      29.18800000      33.24700000      22.86800000 
H      29.36700000      29.98200000      25.30700000 
H      30.71900000      30.44600000      24.43800000 
N      30.15400000      27.12800000      19.07700000 
C      30.12500000      26.27100000      20.25500000 
C      28.76700000      26.14800000      20.85800000 
O      28.23000000      25.05000000      21.14300000 
C      31.19300000      26.72800000      21.29100000 
C      31.24000000      28.17900000      21.43900000 
C      30.83800000      26.08900000      22.67100000 
H      30.73500000      27.85500000      19.06200000 
H      30.39700000      25.17200000      19.92600000 
H      32.12000000      26.31000000      20.98600000 
H      31.95700000      28.44600000      22.27400000 
H      31.67300000      28.69900000      20.52100000 
H      30.25600000      28.64700000      21.65400000 
H      31.59500000      26.31500000      23.33600000 
H      29.91100000      26.56000000      23.03600000 
H      30.67800000      25.04300000      22.61000000 
N      28.21900000      27.26900000      21.07600000 
C      26.90200000      27.32300000      21.80700000 
C      25.79900000      26.75000000      20.96800000 
O      24.95100000      26.05600000      21.38900000 
C      26.66400000      28.76400000      22.18400000 
C      25.36700000      28.88200000      23.06500000 
C      25.60500000      28.32600000      24.45600000 
N      24.72600000      27.26400000      24.80500000 
C      24.35500000      27.01000000      25.97000000 
N      24.70300000      27.65600000      27.02400000 
N      23.46400000      25.97900000      26.22200000 
H      28.51900000      28.15000000      20.72000000 
H      26.98900000      26.71700000      22.67800000 
H      27.50200000      29.17200000      22.73200000 
H      26.51300000      29.37500000      21.27800000 
H      25.10400000      29.97100000      23.12400000 
H      24.55000000      28.37800000      22.60100000 
H      26.65100000      28.01000000      24.57800000 
H      25.47900000      29.17500000      25.20000000 
H      24.45400000      26.66600000      24.06300000 
H      25.36000000      28.36900000      26.97700000 
H      24.34000000      27.47400000      27.97400000 
H      23.08700000      25.51000000      25.36100000 
H      23.16600000      25.69500000      27.06200000 
N      26.05300000      22.86700000      20.12200000 
C      25.63700000      22.13200000      21.30600000 
C      24.14600000      22.21300000      21.44700000 
O      23.42200000      21.21500000      21.60700000 
C      26.31700000      22.65200000      22.54600000 
C      25.62900000      22.17700000      23.80000000 
C      27.79100000      22.22900000      22.56300000 
H      26.69000000      23.70200000      20.28700000 
H      25.85400000      21.10300000      21.16800000 
H      26.28500000      23.81000000      22.47700000 
H      26.20400000      22.58600000      24.68200000 
H      24.61800000      22.61000000      23.88200000 
H      25.60800000      21.13900000      23.83900000 
H      28.30300000      22.67500000      23.33300000 
H      27.83600000      21.16600000      22.61800000 
H      28.29000000      22.55100000      21.58600000 
N      24.09800000      15.52000000      37.72000000 
C      24.84000000      15.79800000      36.50700000 
C      24.18100000      14.83500000      35.38100000 
O      23.89900000      13.70600000      35.68600000 
C      26.29400000      15.42700000      36.67000000 
C      26.94600000      16.55700000      37.47400000 
C      26.97600000      15.20700000      35.32700000 
C      28.29400000      16.26700000      37.94000000 
H      24.03400000      14.58800000      37.99700000 
H      24.72100000      16.73700000      36.20200000 
H      26.34900000      14.54100000      37.22100000 
H      27.00500000      17.40800000      36.78400000 
H      26.32300000      16.80400000      38.24900000 
H      28.06700000      15.09000000      35.44000000 
H      26.63800000      14.28600000      34.84000000 
H      26.79300000      15.99000000      34.65800000 
H      28.77300000      17.05000000      38.45300000 
H      28.28400000      15.42600000      38.67300000 
H      29.00600000      15.91200000      37.16800000 
N      24.44200000      16.06100000      31.47300000 
C      24.98400000      16.31200000      30.12000000 
C      26.52200000      16.14700000      30.16900000 
O      27.07100000      16.54900000      31.12400000 
C      24.62800000      17.72900000      29.68500000 
C      24.52400000      17.87400000      28.17300000 
C      25.47300000      18.70200000      27.53900000 
C      23.54700000      17.25900000      27.51300000 
C      25.31300000      18.90800000      26.13900000 
C      23.37700000      17.49000000      26.08600000 
C      24.31600000      18.35100000      25.43200000 
O      24.07900000      18.43400000      24.16900000 
H      24.34100000      16.83600000      31.99600000 
H      24.53400000      15.56400000      29.41800000 
H      23.64500000      17.93500000      30.11900000 
H      25.31000000      18.40000000      30.09200000 
H      26.22500000      19.18100000      28.04200000 
H      22.80800000      16.64700000      28.00300000 
H      26.01400000      19.52000000      25.63100000 
H      22.60300000      17.00000000      25.56900000 
H      24.75600000      19.03900000      23.69500000 
N      27.08700000      15.61400000      29.02800000 
C      28.54900000      15.62400000      29.00300000 
C      28.94400000      15.82700000      27.55000000 
O      28.30600000      15.30200000      26.70400000 
C      29.10300000      14.34900000      29.61200000 
O      28.70200000      14.24600000      30.98300000 
C      30.64800000      14.42000000      29.60600000 
H      26.61100000      15.28100000      28.32900000 
H      28.88000000      16.46400000      29.59800000 
H      28.75400000      13.53100000      29.07400000 
H      28.34100000      15.11600000      31.32600000 
H      31.00700000      13.55700000      30.10000000 
H      31.03000000      14.29600000      28.53800000 
H      31.02200000      15.28500000      29.98100000 
N      29.96900000      16.66200000      27.44400000 
C      30.52800000      16.93000000      26.12700000 
C      31.91800000      16.69800000      26.13300000 
O      32.63300000      17.21200000      27.12200000 
C      30.14700000      18.41500000      25.71800000 
C      30.64200000      18.72200000      24.29300000 
C      28.79200000      18.76400000      26.02700000 
H      30.35200000      17.11500000      28.17800000 
H      30.03600000      16.34600000      25.39000000 
H      30.86200000      19.04400000      26.41500000 
H      30.40400000      19.72800000      24.06000000 
H      31.64000000      18.51400000      24.13100000 
H      30.02900000      18.08800000      23.65400000 
H      28.54800000      19.76600000      25.66500000 
H      28.14300000      18.10200000      25.49900000 
H      28.54700000      18.72300000      27.04700000 
N      39.90400000      23.96200000      26.88700000 
C      38.99700000      23.29700000      27.67800000 
C      38.66400000      21.95900000      27.12900000 
O      38.64000000      21.70200000      25.96500000 
C      37.74300000      24.23000000      27.85200000 
C      38.19600000      25.48800000      28.49900000 
C      36.63500000      23.43600000      28.66900000 
C      37.18200000      26.07000000      29.48200000 
H      39.76000000      24.79000000      26.34900000 
H      39.38300000      23.15700000      28.64800000 
H      37.30200000      24.40600000      26.88400000 
H      39.10600000      25.36100000      28.99000000 
H      38.37000000      26.23200000      27.75000000 
H      35.88400000      24.04800000      28.83900000 
H      36.36200000      22.56700000      28.16800000 
H      37.11800000      23.14800000      29.64400000 
H      37.56200000      27.07700000      29.86400000 
H      36.21500000      26.24400000      29.02300000 
H      37.04600000      25.47200000      30.36300000 
N      38.46900000      21.07800000      28.06300000 
C      38.34900000      19.59400000      27.74800000 
C      36.94300000      19.25800000      27.75000000 
O      36.12500000      19.78500000      26.92300000 
C      39.22100000      18.90200000      28.88400000 
O      39.38500000      17.58000000      28.48300000 
H      38.41400000      21.29500000      29.00500000 
H      38.78300000      19.42300000      26.80200000 
H      40.12100000      19.40500000      28.85200000 
H      38.73900000      18.98600000      29.82500000 
H      40.35600000      17.36000000      28.41200000 
N      32.98500000      18.72300000      29.61700000 
C      32.14300000      19.56000000      30.47700000 
C      30.89800000      18.80200000      30.80000000 
O      30.50600000      17.93500000      29.96500000 
C      31.93700000      20.91300000      29.83700000 
C      31.15500000      20.77800000      28.54200000 
C      31.24300000      21.83200000      30.79700000 
H      32.59100000      18.14600000      28.99500000 
H      32.72500000      19.70100000      31.42700000 
H      32.87700000      21.30600000      29.64900000 
H      31.04200000      21.69400000      28.09700000 
H      31.74000000      20.15900000      27.83100000 
H      30.23400000      20.30600000      28.68300000 
H      31.16600000      22.89100000      30.31800000 
H      30.16400000      21.54300000      30.94000000 
H      31.70000000      21.93000000      31.75200000 
N      30.22300000      19.09600000      31.80500000 
C      28.98500000      18.50000000      32.20800000 
C      28.08800000      19.42800000      32.78500000 
O      28.47700000      20.48900000      33.41700000 
C      29.24900000      17.33800000      33.14700000 
H      30.59100000      19.80200000      32.45900000 
H      28.56000000      18.07900000      31.29000000 
H      28.29100000      16.84000000      33.43100000 
H      29.87900000      16.58800000      32.67300000 
H      29.74200000      17.67300000      34.06600000 
N      26.74600000      19.27300000      32.68000000 
C      25.74500000      20.13200000      33.10700000 
C      24.79000000      19.39700000      34.03200000 
O      24.55900000      18.22100000      33.94600000 
C      24.85400000      20.70400000      31.95900000 
C      25.51300000      21.48700000      30.91700000 
C      26.94500000      21.76300000      30.89100000 
C      24.72700000      22.01500000      29.91500000 
C      27.48300000      22.52400000      29.82800000 
C      25.24400000      22.80500000      28.85500000 
C      26.66700000      23.03300000      28.86100000 
O      27.17000000      23.80500000      27.84100000 
H      26.48800000      18.40500000      32.20400000 
H      26.21000000      20.97100000      33.63500000 
H      24.34400000      19.82900000      31.50500000 
H      24.09400000      21.25500000      32.39400000 
H      27.54500000      21.39000000      31.63800000 
H      23.67200000      21.84900000      29.90600000 
H      28.48300000      22.72800000      29.84800000 
H      24.67200000      23.20900000      28.12500000 
H      28.04300000      24.00100000      27.90500000 
N      21.32300000      25.95300000      41.16700000 
C      22.15400000      26.24500000      40.06100000 
C      21.54800000      25.86100000      38.77900000 
O      21.77500000      26.52200000      37.66800000 
C      23.52700000      25.53700000      40.18000000 
C      24.56800000      25.96400000      39.27700000 
C      24.73100000      27.44300000      39.15600000 
C      25.86900000      25.32600000      39.61300000 
H      21.50700000      25.14700000      41.76400000 
H      22.32100000      27.37100000      40.00800000 
H      23.85900000      25.83300000      41.22300000 
H      23.36200000      24.50000000      40.18000000 
H      24.27500000      25.56700000      38.19200000 
H      25.62800000      27.70800000      38.52700000 
H      23.91300000      27.92200000      38.67000000 
H      24.87600000      27.85800000      40.07600000 
H      26.63900000      25.44900000      38.87500000 
H      26.23000000      25.71400000      40.55400000 
H      25.76500000      24.22100000      39.73800000 
N      22.60000000      23.17300000      33.53800000 
C      23.45100000      24.46800000      33.66800000 
C      24.83800000      23.93500000      33.84600000 
O      25.04700000      22.89500000      34.57700000 
C      22.99400000      25.20400000      34.81600000 
C      23.16700000      26.74200000      34.78900000 
C      24.60900000      27.11100000      35.20900000 
C      22.78400000      27.33600000      33.51500000 
H      22.64100000      22.58900000      34.22700000 
H      23.38800000      24.95800000      32.78300000 
H      21.86000000      25.05800000      34.83400000 
H      23.33600000      24.79700000      35.76400000 
H      22.47400000      27.12800000      35.54700000 
H      24.70600000      28.19800000      35.14000000 
H      24.72700000      26.85300000      36.28700000 
H      25.28900000      26.64100000      34.71600000 
H      22.69600000      28.39200000      33.52700000 
H      23.55300000      27.10200000      32.68400000 
H      21.82900000      26.92000000      33.11100000 
N      25.90000000      24.51400000      33.21900000 
C      27.22400000      23.97700000      33.40700000 
C      27.59200000      23.82900000      34.90200000 
O      27.39700000      24.74100000      35.72000000 
C      28.06600000      25.03100000      32.73500000 
C      27.20800000      25.55300000      31.62700000 
C      25.86900000      25.60000000      32.27300000 
H      27.30900000      23.03900000      32.94800000 
H      28.33700000      25.80600000      33.43600000 
H      29.05900000      24.57400000      32.39300000 
H      27.51400000      26.45400000      31.25800000 
H      27.23800000      24.85400000      30.81900000 
H      25.65900000      26.49500000      32.68900000 
H      25.05800000      25.37100000      31.50900000 
N      28.22700000      22.68700000      35.20400000 
C      28.68200000      22.39700000      36.45600000 
C      30.22100000      22.47000000      36.45500000 
O      30.74800000      23.56400000      36.51200000 
C      28.10900000      21.07400000      36.99200000 
C      26.58900000      21.09200000      36.95000000 
C      28.56400000      20.74300000      38.37900000 
C      25.95600000      22.12000000      37.84100000 
H      28.26600000      21.96700000      34.49500000 
H      28.38200000      23.16100000      37.13600000 
H      28.43200000      20.27000000      36.34800000 
H      26.30500000      21.27600000      35.95500000 
H      26.23400000      20.12600000      37.19700000 
H      28.07500000      19.93200000      38.82000000 
H      29.66400000      20.51300000      38.43400000 
H      28.46100000      21.59800000      39.04300000 
H      24.86200000      22.09100000      37.74900000 
H      26.20900000      21.97300000      38.87100000 
H      26.27200000      23.14700000      37.54300000 
N      30.87400000      21.28700000      36.30600000 
C      32.31800000      21.32100000      36.41100000 
C      32.98600000      21.70900000      35.10600000 
O      32.41300000      21.50500000      34.00500000 
C      32.82100000      19.98700000      36.84300000 
O      32.31200000      19.77600000      38.14700000 
H      30.45000000      20.47100000      36.24300000 
H      32.61400000      22.06300000      37.14600000 
H      32.44400000      19.19500000      36.16200000 
H      33.85300000      19.95300000      36.83600000 
H      32.67400000      18.97500000      38.55500000 
N      34.23700000      22.20200000      35.27000000 
C      35.08500000      22.46000000      34.13300000 
C      36.40300000      21.73700000      34.40600000 
O      36.81000000      21.55200000      35.53400000 
C      35.37500000      23.95900000      34.03900000 
C      34.25500000      24.81200000      33.62400000 
C      34.12200000      24.96900000      32.18400000 
C      33.37800000      25.37400000      34.38800000 
C      33.09900000      25.83300000      31.71100000 
C      32.38600000      26.20300000      33.94100000 
C      32.25100000      26.39200000      32.57300000 
O      31.26500000      27.26400000      32.18600000 
H      34.57600000      22.32200000      36.19000000 
H      34.68600000      22.13300000      33.24800000 
H      35.68600000      24.29600000      35.05700000 
H      36.28900000      24.10500000      33.46400000 
H      34.81200000      24.50700000      31.49700000 
H      33.49700000      25.24900000      35.50100000 
H      33.01100000      25.96000000      30.65300000 
H      31.69200000      26.69500000      34.61300000 
H      31.35500000      27.54200000      31.20100000 
N      37.01800000      21.33400000      33.30800000 
C      38.38900000      20.65800000      33.31700000 
C      38.94500000      20.96900000      32.03700000 
O      38.28300000      21.07400000      31.03400000 
C      38.17200000      19.14700000      33.51600000 
O      39.50600000      18.61800000      33.08400000 
C      36.97800000      18.51700000      32.85100000 
H      36.64500000      21.43500000      32.45600000 
H      38.94200000      21.10100000      34.15300000 
H      38.11500000      18.98900000      34.66800000 
H      39.55700000      17.73000000      33.36600000 
H      37.10200000      17.50200000      32.94300000 
H      36.14900000      18.86000000      33.23100000 
H      37.08400000      18.80700000      31.77200000 
N      40.27300000      21.19700000      32.03300000 
C      40.95900000      21.59900000      30.87400000 
C      42.24300000      20.73700000      30.67000000 
O      42.65900000      20.11100000      31.53900000 
C      41.30900000      23.07700000      30.83400000 
O      42.34300000      23.21000000      31.84800000 
C      40.10100000      23.94300000      31.26200000 
H      40.81800000      21.08900000      32.87700000 
H      40.32000000      21.42400000      30.01300000 
H      41.65700000      23.36500000      29.96000000 
H      42.51100000      24.09400000      32.12400000 
H      40.36300000      24.97700000      31.18000000 
H      39.24500000      23.66300000      30.66300000 
H      39.86800000      23.72700000      32.32500000 
N      39.43800000      21.90900000      37.32300000 
C      39.09800000      23.14500000      37.97200000 
C      37.78200000      22.99100000      38.55700000 
O      37.31900000      21.87300000      38.97700000 
C      39.34200000      24.33900000      37.10100000 
C      38.45200000      24.40100000      35.88500000 
C      38.56600000      25.73800000      35.16000000 
O      38.74900000      25.75700000      33.98100000 
N      38.48900000      26.87500000      35.89800000 
H      38.82900000      21.61100000      36.55500000 
H      39.80300000      23.17300000      38.81800000 
H      39.27600000      25.27300000      37.77600000 
H      40.40100000      24.29600000      36.78400000 
H      38.61700000      23.64400000      35.22900000 
H      37.40600000      24.37700000      36.25300000 
H      38.33300000      26.85300000      36.87900000 
H      38.56500000      27.69400000      35.46200000 
N      37.00900000      24.12200000      38.75400000 
C      35.70300000      23.97200000      39.29900000 
C      34.81000000      24.98300000      38.80100000 
O      35.02700000      25.71100000      37.87000000 
C      35.77200000      23.92000000      40.85200000 
C      34.82000000      22.84700000      41.35100000 
O      33.80200000      23.11800000      41.97600000 
N      35.08700000      21.54500000      40.98100000 
H      37.36000000      25.02400000      38.56100000 
H      35.33200000      23.05400000      38.93700000 
H      36.72600000      23.60400000      41.12900000 
H      35.52700000      24.76400000      41.29300000 
H      34.52200000      20.86400000      41.20800000 
H      35.89800000      21.40900000      40.40300000 
N      33.58000000      25.07100000      39.48600000 
C      32.52200000      25.90100000      39.10000000 
C      32.48300000      27.18100000      39.90800000 
O      31.56200000      27.95600000      39.77700000 
C      31.27300000      25.11900000      39.29200000 
O      31.22800000      24.73900000      40.62500000 
H      33.43400000      24.46700000      40.25200000 
H      32.61600000      26.19100000      38.05500000 
H      30.36100000      25.78700000      39.09000000 
H      31.23200000      24.28800000      38.62800000 
H      30.75400000      23.90500000      40.81800000 
H      29.33490282      34.44237313      40.44480264 
H      28.07989256      34.55513603      35.81606794 
H      30.85067633      35.22390014      35.80729674 
H      41.46582963      28.06900343      23.97133448 
H      39.52749228      31.89417053      37.28298265 
H      40.93254900      32.64222645      34.06821694 
H      40.59544159      33.48449884      28.12519020 
H      41.97807737      33.75054145      24.97253620 
H      34.93298016      31.51868854      20.39873672 
H      29.54565348      31.43113925      19.91777889 
H      30.38444090      26.64049458      18.35642005 
H      25.75753188      26.95354118      19.98981219 
H      26.50334075      22.31714466      19.56986567 
H      23.68818869      23.10144019      21.41409350 
H      24.48013717      15.95117527      38.41141816 
H      24.01794277      15.18377048      34.45808533 
H      23.62952804      15.67982460      31.40521632 
H      32.33796103      16.15812234      25.40350370 
H      40.60094011      24.23015388      27.38936241 
H      36.58783584      18.59694873      28.41096115 
H      33.51977993      19.24745262      29.11804121 
H      24.31589004      19.89412278      34.75869710 
H      21.33363152      26.64541080      41.74185151 
H      20.93775743      25.07021920      38.73135837 
H      21.73093008      23.39168693      33.45497290 
H      42.70422289      20.72917479      29.78275020 
H      40.26352068      21.97213728      36.97011291 
H      33.21929630      27.38831707      40.55211753 
