115
Properties=species:S:1:pos:R:3 pbc="F F F"
N      57.73700000      48.14300000      66.70400000 
C      57.76700000      48.13400000      65.24700000 
C      58.85200000      48.96200000      64.79000000 
O      59.38600000      49.93700000      65.46000000 
C      56.44200000      48.53500000      64.62400000 
C      56.01500000      49.89000000      64.91400000 
C      56.13600000      50.97200000      64.11500000 
C      55.19300000      50.38300000      66.09300000 
N      55.57600000      52.09700000      64.61700000 
C      54.96000000      51.80100000      65.87500000 
C      54.75400000      49.83000000      67.22500000 
C      54.27000000      52.47500000      66.76100000 
C      54.02500000      50.57300000      68.16000000 
C      53.80800000      51.94700000      67.87900000 
H      57.82600000      49.03900000      67.20700000 
H      57.98500000      47.13200000      64.98300000 
H      56.45000000      48.34600000      63.62700000 
H      55.73600000      47.88200000      65.05100000 
H      56.67000000      51.02800000      63.17000000 
H      55.51500000      52.97200000      64.24300000 
H      54.95800000      48.76500000      67.44800000 
H      54.03200000      53.59000000      66.55300000 
H      53.68300000      50.13500000      69.04400000 
H      53.22300000      52.47200000      68.59500000 
N      59.20100000      48.77600000      63.44700000 
C      60.19500000      49.50600000      62.80900000 
C      59.45000000      50.56900000      61.91900000 
O      58.21700000      50.53200000      61.73000000 
C      60.84200000      48.66200000      61.71600000 
C      61.52200000      47.40400000      62.40800000 
O      61.47100000      46.32300000      61.79500000 
O      62.03000000      47.56300000      63.59300000 
H      58.68000000      48.04300000      62.99000000 
H      60.86400000      49.98100000      63.41400000 
H      60.19400000      48.28400000      60.99700000 
H      61.66600000      49.17100000      61.30500000 
N      60.27300000      51.50700000      61.38300000 
C      59.73900000      52.27400000      60.24600000 
C      60.92500000      52.64300000      59.42800000 
O      62.07200000      52.76100000      59.95000000 
C      58.98400000      53.46800000      60.71500000 
C      59.81500000      54.42100000      61.47000000 
C      59.13900000      55.68000000      62.03300000 
O      59.57300000      56.18900000      63.01100000 
O      58.05000000      56.03000000      61.41900000 
H      61.15000000      51.53100000      61.57300000 
H      59.10300000      51.65200000      59.66000000 
H      58.59400000      54.00300000      59.77300000 
H      58.14700000      53.18100000      61.26800000 
H      60.32200000      53.95600000      62.24000000 
H      60.66400000      54.85800000      60.81800000 
N      64.07500000      53.34400000      62.13400000 
C      63.91100000      53.96900000      63.31300000 
C      62.87800000      53.30100000      64.17200000 
O      61.73000000      53.79900000      64.37100000 
C      63.56500000      55.49100000      63.20800000 
O      62.40700000      55.64900000      62.37300000 
C      64.65900000      56.18700000      62.54500000 
H      63.24700000      53.19100000      61.50100000 
H      64.83800000      53.95000000      63.89000000 
H      63.40800000      55.87800000      64.14900000 
H      61.59100000      55.54600000      62.87200000 
H      64.48100000      57.23600000      62.48500000 
H      65.61800000      56.06000000      63.00100000 
H      64.78600000      55.85000000      61.48700000 
N      63.19500000      52.11800000      64.65000000 
C      62.16500000      51.40500000      65.51800000 
C      61.83700000      52.24800000      66.66600000 
O      62.61100000      52.93700000      67.26200000 
C      62.92400000      50.16600000      65.90000000 
C      64.40300000      50.50900000      65.83800000 
C      64.45000000      51.40400000      64.64100000 
H      61.32600000      51.20900000      64.94000000 
H      62.59900000      49.79900000      66.89500000 
H      62.68900000      49.35100000      65.22000000 
H      64.65400000      51.07400000      66.72500000 
H      65.03400000      49.64600000      65.74900000 
H      65.25300000      52.08800000      64.66600000 
H      64.53400000      50.85000000      63.72400000 
N      60.51400000      52.13500000      67.03100000 
C      59.98700000      52.88200000      68.13500000 
C      58.89000000      52.01500000      68.68500000 
O      57.88500000      51.88500000      68.11600000 
C      59.45100000      54.25400000      67.70300000 
C      58.90800000      55.07900000      68.84300000 
C      59.52500000      56.44800000      68.90100000 
C      59.23100000      57.23500000      67.64200000 
N      60.14300000      58.46300000      67.56700000 
H      59.90900000      51.55400000      66.48800000 
H      60.78600000      53.04300000      68.87500000 
H      60.34400000      54.78300000      67.22200000 
H      58.74300000      54.08200000      66.93600000 
H      57.86800000      55.13500000      68.78100000 
H      59.14500000      54.57400000      69.78900000 
H      59.19200000      57.00400000      69.77400000 
H      60.65500000      56.35100000      68.98400000 
H      59.35200000      56.65300000      66.74900000 
H      58.18200000      57.63400000      67.67700000 
H      59.86900000      59.01100000      66.78600000 
H      60.12300000      58.95200000      68.40100000 
H      61.04200000      58.12700000      67.38300000 
N      59.13300000      51.54800000      69.96800000 
C      58.07700000      50.73700000      70.57100000 
C      56.96900000      51.47700000      71.04500000 
O      57.06900000      52.77600000      71.30900000 
C      58.72600000      49.96000000      71.75000000 
H      59.91600000      51.76700000      70.40300000 
H      57.74900000      50.02200000      69.84700000 
H      58.04700000      49.33400000      72.16700000 
H      59.59900000      49.38600000      71.38200000 
H      59.11400000      50.68900000      72.45800000 
H      56.95382312      47.80451177      66.99046064 
H      60.82488955      52.80305192      58.44598102 
H      64.65485896      53.80834508      61.62591808 
H      56.08910794      51.02373029      71.18760625 
