497
Properties=species:S:1:pos:R:3 pbc="F F F"
N      40.70600000      41.67400000      18.55600000 
C      40.69700000      43.05100000      18.60600000 
C      39.42600000      43.69100000      18.88800000 
O      38.61800000      44.16600000      17.53200000 
C      41.31400000      43.94900000      17.45300000 
C      43.15500000      43.59200000      17.80000000 
C      43.58100000      44.65700000      18.89500000 
O      43.26000000      45.58600000      18.98500000 
N      44.48400000      44.24800000      19.54800000 
H      40.66000000      41.53400000      17.58700000 
H      41.16200000      43.33700000      19.59500000 
H      41.22300000      43.58900000      16.72200000 
H      41.29300000      44.87100000      17.65000000 
H      43.22400000      42.74300000      17.82200000 
H      43.52100000      44.02300000      16.78100000 
H      44.82400000      43.17800000      19.44900000 
H      45.00100000      44.52000000      20.18600000 
N      38.56100000      43.69800000      20.18900000 
C      37.54900000      44.06600000      20.15500000 
C      37.08300000      45.69400000      20.15900000 
O      36.03400000      45.80400000      20.16800000 
C      36.74700000      43.29400000      21.64000000 
C      36.82500000      41.94200000      21.68600000 
C      35.80100000      41.42200000      20.69600000 
C      37.66000000      41.37700000      22.61300000 
C      35.82600000      39.96200000      20.79600000 
C      37.58700000      40.15000000      22.52600000 
C      36.45200000      39.34900000      21.49600000 
H      39.27200000      43.33100000      20.76600000 
H      36.64100000      43.67400000      19.44600000 
H      37.53200000      43.83000000      22.39800000 
H      35.76300000      43.97100000      21.84600000 
H      35.20700000      41.83200000      20.09700000 
H      38.14600000      41.52200000      23.00800000 
H      35.03500000      39.45800000      20.11600000 
H      38.13600000      39.15500000      23.17000000 
H      36.48500000      37.98600000      21.64500000 
N      37.80500000      46.35800000      19.77900000 
C      37.99200000      47.62400000      19.59400000 
C      37.14200000      47.93500000      18.25200000 
O      36.43100000      48.80400000      17.90500000 
C      39.26800000      48.51700000      19.12000000 
C      39.87200000      48.80900000      20.71700000 
C      39.62900000      49.53900000      21.71700000 
O      39.02400000      49.44200000      22.40300000 
N      39.85000000      50.84600000      21.04600000 
H      39.15400000      45.96100000      19.86900000 
H      37.31700000      48.19600000      20.12200000 
H      39.82300000      47.81400000      18.66100000 
H      39.14100000      49.36500000      18.89100000 
H      40.00200000      47.60800000      21.24800000 
H      41.14400000      48.84200000      20.36300000 
H      40.23500000      51.22700000      20.44900000 
H      39.43400000      51.71400000      21.87600000 
N      37.39800000      46.49300000      17.34200000 
C      36.72800000      46.76100000      16.13500000 
C      35.28000000      46.38400000      15.79600000 
O      35.03700000      45.36200000      16.79400000 
C      37.69000000      45.75300000      14.86800000 
O      37.57800000      44.63100000      15.31200000 
C      39.04800000      46.52600000      14.85800000 
H      37.70200000      46.18900000      17.50000000 
H      36.74400000      48.02300000      15.59000000 
H      37.15500000      46.25400000      13.95200000 
H      37.99500000      44.37100000      15.83300000 
H      39.54800000      45.92500000      14.08100000 
H      39.01100000      47.65100000      14.64500000 
H      39.60100000      46.29100000      15.85000000 
N      34.62000000      46.74000000      15.17700000 
C      33.11200000      46.43000000      14.65300000 
C      33.33600000      44.88700000      14.20200000 
O      32.19100000      44.21400000      14.71400000 
C      32.61500000      47.46500000      14.13100000 
C      30.68800000      46.71000000      13.73300000 
C      30.15000000      47.17700000      14.97600000 
O      29.80200000      48.26500000      15.54800000 
N      29.75600000      45.92100000      15.99400000 
H      34.74500000      47.65900000      14.48200000 
H      32.63900000      46.21000000      16.00300000 
H      32.36200000      48.04800000      14.31200000 
H      32.82300000      47.27700000      12.98500000 
H      30.42700000      47.63300000      13.19100000 
H      30.78300000      46.09700000      13.41500000 
H      30.06400000      45.03800000      15.52700000 
H      29.30700000      46.02800000      16.60400000 
N      33.46100000      42.63000000      17.16800000 
C      32.36800000      42.16100000      18.06700000 
C      31.17200000      41.35500000      17.42500000 
O      30.60300000      40.39500000      17.87900000 
C      31.68900000      43.56200000      18.42800000 
C      32.80600000      44.48100000      19.15700000 
C      32.17100000      45.46000000      20.14300000 
N      31.67900000      46.49100000      19.37100000 
C      31.89600000      47.56700000      19.02000000 
N      33.89200000      47.35400000      19.19800000 
N      32.03600000      48.56900000      18.26600000 
H      33.74200000      43.03000000      16.90500000 
H      32.51900000      41.54500000      18.75700000 
H      31.59500000      44.09600000      17.74100000 
H      30.99000000      43.30300000      18.87800000 
H      33.19100000      43.32700000      20.28400000 
H      33.54200000      44.49300000      18.96600000 
H      31.24100000      44.90100000      20.76600000 
H      32.83600000      45.69500000      20.96400000 
H      30.71700000      46.52500000      19.34900000 
H      34.20100000      46.79900000      19.52800000 
H      34.19800000      48.42000000      18.67700000 
H      30.59200000      48.38800000      18.31900000 
H      32.10300000      49.15900000      18.00200000 
N      25.77500000      34.28400000      33.02100000 
C      27.06000000      34.35500000      32.32500000 
C      26.92500000      34.74900000      30.89900000 
O      27.50100000      35.32800000      30.37500000 
C      27.90700000      33.60300000      32.70400000 
C      28.63100000      33.63800000      34.30300000 
C      29.37200000      32.52900000      34.93100000 
C      28.79100000      34.97600000      34.85200000 
H      25.55100000      33.42500000      33.43700000 
H      27.31200000      35.65600000      32.69600000 
H      27.68700000      32.57200000      32.64400000 
H      28.93900000      33.75700000      32.48600000 
H      27.20300000      33.25100000      34.97800000 
H      29.46100000      32.41500000      35.68800000 
H      28.92900000      31.41900000      34.41900000 
H      30.27100000      32.69200000      34.23700000 
H      29.11500000      34.85200000      35.97700000 
H      29.64600000      35.24200000      34.35800000 
H      28.07900000      35.66600000      34.85300000 
N      24.53000000      37.65800000      29.76400000 
C      25.61900000      38.99300000      29.76600000 
C      26.65800000      39.15500000      28.76900000 
O      26.79800000      39.90900000      28.40400000 
C      26.22800000      38.86200000      31.37000000 
H      24.92600000      37.14300000      30.69100000 
H      25.03700000      39.79300000      29.88700000 
H      26.94800000      40.04900000      31.40700000 
H      25.75400000      39.06400000      32.10000000 
H      26.98100000      38.17000000      31.51300000 
N      27.24800000      38.12800000      28.38900000 
C      27.96000000      37.65200000      27.42900000 
C      27.73200000      38.23000000      26.18300000 
O      28.08900000      39.18200000      25.27500000 
C      28.92600000      36.71900000      27.35400000 
C      29.82800000      36.22800000      26.03000000 
C      30.65900000      37.21900000      26.17000000 
C      30.17600000      34.88500000      25.96800000 
H      27.19300000      37.09100000      28.99000000 
H      28.97100000      38.65100000      27.50400000 
H      29.38200000      36.24300000      28.15300000 
H      27.92400000      35.65700000      27.29800000 
H      29.30600000      36.35000000      25.29000000 
H      31.81800000      36.94800000      25.20000000 
H      30.69700000      38.28000000      25.99500000 
H      31.61700000      37.11100000      27.08800000 
H      30.85900000      34.60400000      25.36400000 
H      30.89400000      34.57900000      27.23900000 
H      29.49300000      34.07400000      26.15500000 
N      26.65100000      41.74200000      26.14900000 
C      28.11300000      43.05300000      25.96100000 
C      28.57800000      43.42400000      24.42400000 
O      29.12100000      44.30900000      24.49500000 
C      29.04800000      42.30000000      26.83500000 
H      26.99900000      41.55100000      26.36000000 
H      27.71100000      43.91900000      26.39900000 
H      29.96100000      43.19200000      26.92300000 
H      28.77100000      42.23400000      27.96200000 
H      29.37300000      41.35900000      26.46300000 
N      28.29800000      42.29200000      23.66300000 
C      28.76700000      42.55900000      22.35700000 
C      27.87000000      43.70100000      21.62300000 
O      28.44700000      44.14600000      20.36700000 
C      28.65100000      41.40800000      21.32700000 
C      29.62200000      40.43900000      21.58500000 
C      30.85100000      40.67900000      21.42400000 
C      29.29300000      38.76100000      22.46600000 
C      32.28600000      39.63800000      21.87000000 
C      30.37100000      38.48000000      22.50000000 
C      31.34300000      38.05000000      22.31200000 
H      27.77500000      41.50400000      23.88600000 
H      29.57900000      43.12100000      22.24100000 
H      27.58200000      40.90300000      21.47300000 
H      28.77600000      41.59000000      20.55900000 
H      31.36500000      41.40000000      21.16400000 
H      28.17400000      38.88900000      22.45500000 
H      32.88000000      39.70000000      21.62500000 
H      29.82600000      37.01300000      22.95300000 
H      32.19700000      37.70200000      22.52700000 
N      26.87900000      46.93000000      20.98300000 
C      27.41900000      48.08000000      21.05900000 
C      28.09700000      48.21900000      19.60300000 
O      28.61800000      48.13100000      19.24200000 
C      28.50500000      48.34900000      22.27500000 
O      27.86000000      48.02600000      23.01800000 
C      29.16800000      49.78300000      21.91200000 
H      27.71800000      46.03600000      20.52500000 
H      26.55200000      48.73100000      21.36200000 
H      29.34500000      47.57400000      21.81000000 
H      28.74700000      47.94800000      24.14800000 
H      29.77800000      49.83900000      22.83700000 
H      29.61000000      49.94900000      21.15900000 
H      28.36700000      50.47900000      22.21600000 
N      34.44100000      57.22700000      22.30600000 
C      35.78000000      56.16600000      22.84400000 
C      35.39800000      55.48300000      24.02800000 
O      35.62400000      54.32700000      24.27000000 
C      36.86400000      57.23900000      22.80800000 
O      37.19000000      57.59100000      21.72800000 
C      38.10600000      56.56800000      23.24000000 
H      34.66700000      58.02100000      22.19500000 
H      35.84300000      55.44900000      22.13600000 
H      36.70600000      57.90600000      23.50700000 
H      37.47500000      58.24800000      21.48500000 
H      38.90700000      57.03800000      23.42100000 
H      37.96100000      56.08100000      24.78300000 
H      38.29500000      55.53100000      22.85100000 
N      34.46300000      56.30800000      25.12600000 
C      34.02400000      55.46000000      26.45900000 
C      33.39100000      54.38800000      26.31600000 
O      33.58800000      53.52100000      26.72700000 
C      33.68200000      56.55200000      27.20100000 
C      33.58000000      55.84800000      28.83400000 
C      34.22500000      55.53900000      29.17600000 
N      35.59800000      56.06900000      29.54000000 
C      36.93500000      55.83600000      29.92400000 
N      36.90100000      54.47500000      29.75300000 
N      37.65600000      56.77000000      29.76800000 
H      34.30200000      57.17200000      24.93200000 
H      35.21100000      55.09900000      26.78400000 
H      34.34900000      57.41600000      27.39200000 
H      32.74800000      57.17400000      26.74200000 
H      32.82700000      57.06200000      29.31100000 
H      32.39500000      55.41100000      28.59200000 
H      34.06300000      54.96600000      30.45200000 
H      34.69100000      54.55100000      28.94800000 
H      35.35500000      57.23400000      29.62300000 
H      36.41400000      53.89000000      29.84700000 
H      38.16500000      54.22700000      29.85900000 
H      37.60900000      57.70200000      29.71700000 
H      38.73300000      56.37400000      30.05100000 
N      32.17500000      54.35100000      24.99500000 
C      31.43000000      53.32600000      24.77500000 
C      32.39500000      52.05800000      24.46800000 
O      31.84700000      50.96500000      24.84700000 
C      30.31000000      53.97500000      24.10100000 
C      29.48900000      54.50200000      24.78200000 
C      28.23700000      54.85800000      23.66200000 
N      27.47800000      54.22200000      23.31800000 
C      27.14000000      53.49900000      21.86600000 
N      28.44000000      54.11300000      20.94300000 
N      26.59600000      52.78000000      21.51300000 
H      32.19800000      55.26500000      24.70800000 
H      31.05100000      52.94300000      25.98700000 
H      30.72500000      54.26700000      23.07600000 
H      29.83500000      52.68900000      23.61700000 
H      28.80400000      54.01400000      25.38000000 
H      29.71500000      55.37500000      25.06000000 
H      27.45000000      55.95400000      24.29500000 
H      28.70900000      55.71300000      22.91100000 
H      26.64900000      53.67200000      23.68700000 
H      28.81000000      54.59900000      21.18000000 
H      28.15600000      53.59300000      20.08500000 
H      25.72600000      52.32700000      22.29100000 
H      26.44400000      52.35200000      20.55800000 
N      33.16700000      52.12300000      23.51600000 
C      33.94800000      51.36000000      22.82400000 
C      35.09700000      50.41200000      24.15100000 
O      35.07900000      49.61200000      24.01300000 
C      34.77800000      51.72500000      21.82600000 
C      35.83400000      50.59300000      21.12900000 
C      33.59600000      52.08200000      20.78300000 
H      33.47000000      53.45400000      23.06600000 
H      33.37200000      50.35100000      22.69400000 
H      35.29900000      52.68000000      21.88400000 
H      36.22700000      51.05200000      20.31700000 
H      36.64800000      50.50800000      21.92400000 
H      35.33200000      49.78500000      21.03200000 
H      34.37000000      52.46700000      19.61700000 
H      33.18100000      51.06100000      20.21300000 
H      33.03700000      52.74900000      20.80100000 
N      35.52200000      51.09500000      24.92400000 
C      36.22700000      51.28900000      25.82500000 
C      35.70800000      49.97300000      26.90700000 
O      36.09700000      49.13000000      27.30800000 
C      36.96700000      52.08300000      26.64000000 
C      38.43000000      53.02200000      26.05300000 
O      38.72200000      52.32400000      24.87800000 
O      38.62600000      53.67600000      26.19200000 
H      35.49000000      52.84000000      24.72900000 
H      37.32000000      50.23200000      25.43700000 
H      36.49300000      52.86600000      26.91600000 
H      37.64000000      51.74500000      27.55600000 
N      34.39200000      50.65200000      27.29800000 
C      33.78100000      49.95800000      28.43600000 
C      33.23600000      48.64000000      27.77800000 
O      33.16500000      47.46000000      28.52400000 
C      32.29200000      50.78100000      28.63100000 
C      32.89700000      51.90700000      29.76000000 
O      34.02600000      51.77700000      30.36300000 
O      31.81400000      52.63100000      30.07200000 
H      34.07800000      51.57900000      27.01600000 
H      34.11200000      49.65000000      28.93400000 
H      32.01600000      51.14600000      28.08100000 
H      31.74200000      50.01600000      29.28800000 
N      32.76100000      48.67700000      26.32200000 
C      32.15600000      47.23300000      25.78500000 
C      33.55600000      46.15000000      25.74700000 
O      33.23000000      45.21000000      26.12300000 
C      31.81100000      47.55700000      24.58300000 
H      32.67900000      49.30800000      25.83200000 
H      31.65300000      46.86500000      26.34500000 
H      31.52600000      46.50600000      23.90800000 
H      31.05900000      48.17200000      24.34300000 
H      32.68000000      48.04300000      23.66300000 
N      34.98000000      46.85600000      25.39800000 
C      35.73800000      45.63800000      25.50400000 
C      36.31600000      45.25200000      26.71500000 
O      36.34100000      43.95500000      26.71100000 
C      37.11900000      46.54600000      24.77000000 
O      36.71900000      46.96900000      23.38600000 
C      38.17800000      45.99900000      24.67600000 
H      34.83800000      47.76900000      25.25600000 
H      35.60100000      45.13900000      24.69400000 
H      37.32500000      47.67800000      25.41900000 
H      36.40800000      47.93100000      23.32200000 
H      39.15100000      46.46300000      24.21900000 
H      38.85100000      45.74900000      25.79000000 
H      38.25600000      45.06400000      24.25400000 
N      36.14800000      46.22100000      27.98200000 
C      36.33600000      45.37400000      29.04900000 
C      35.53300000      44.55500000      29.79700000 
O      35.67700000      43.59400000      30.06300000 
C      36.30900000      46.80000000      30.23100000 
C      37.10100000      46.27200000      31.48000000 
C      38.07800000      47.44000000      29.81400000 
H      36.06700000      47.12400000      27.75700000 
H      37.44600000      44.79800000      29.12200000 
H      36.11600000      47.25600000      30.10200000 
H      36.96100000      46.89400000      32.14300000 
H      35.73700000      45.70900000      32.06700000 
H      37.52900000      45.34900000      31.73400000 
H      38.27500000      48.19000000      30.39800000 
H      38.90900000      46.69900000      29.80500000 
H      38.08600000      47.78500000      28.76100000 
N      33.94000000      44.71300000      29.33100000 
C      33.01800000      44.05400000      29.56500000 
C      32.89200000      42.64200000      29.20300000 
O      32.88600000      41.76800000      29.39700000 
C      31.60000000      44.73600000      29.19600000 
H      33.79600000      45.96900000      28.78900000 
H      33.08900000      43.73500000      30.75300000 
H      30.87500000      44.06700000      29.72300000 
H      31.55600000      45.58300000      30.01000000 
H      31.51000000      44.93100000      28.50000000 
N      33.51500000      42.64500000      27.40500000 
C      33.65600000      41.37300000      26.81300000 
C      34.41600000      40.43400000      27.49500000 
O      34.38500000      39.53400000      27.54200000 
C      33.75100000      41.83600000      25.37500000 
C      32.49100000      42.35400000      24.78400000 
C      34.28400000      40.71300000      24.35600000 
C      32.84300000      42.99400000      23.27800000 
H      33.54000000      43.57600000      27.11400000 
H      32.50800000      40.87200000      26.94000000 
H      34.60300000      42.49900000      25.22200000 
H      31.81100000      41.59900000      24.49900000 
H      32.05600000      43.10500000      25.32500000 
H      34.32700000      40.67900000      23.75200000 
H      35.22600000      40.03900000      24.91200000 
H      33.47500000      39.60500000      24.73000000 
H      31.96200000      43.58700000      23.01300000 
H      33.63500000      44.00100000      23.58600000 
H      33.22300000      42.49500000      22.71300000 
N      35.91500000      41.30700000      27.62400000 
C      36.98000000      40.54000000      28.02800000 
C      36.54600000      39.37000000      29.53100000 
O      36.97700000      38.77700000      29.93300000 
C      38.39800000      40.77900000      28.22300000 
C      38.59300000      41.34900000      26.69900000 
C      40.25700000      41.94200000      26.67100000 
N      40.56400000      41.84800000      25.50500000 
C      41.32400000      40.84600000      24.41700000 
N      41.54400000      39.75700000      25.42300000 
N      41.57600000      40.70800000      23.67800000 
H      35.94800000      41.96500000      27.58600000 
H      36.94400000      39.46500000      27.61300000 
H      38.08900000      42.20600000      28.60600000 
H      38.81500000      40.65700000      28.58100000 
H      38.90700000      40.07600000      26.26300000 
H      37.97700000      41.61500000      26.03200000 
H      39.87200000      42.97000000      26.79300000 
H      40.72300000      41.69100000      27.16100000 
H      40.32400000      42.65800000      24.42900000 
H      41.56000000      39.87500000      26.49100000 
H      42.08900000      39.09100000      24.97000000 
H      41.01300000      41.50100000      22.72700000 
H      42.05100000      39.77300000      22.89500000 
N      36.02200000      40.56000000      30.48700000 
C      35.60600000      39.89600000      31.85000000 
C      34.48700000      39.25500000      31.61300000 
O      34.66500000      38.02600000      32.55300000 
C      34.67900000      41.30000000      32.60500000 
O      36.04800000      42.51400000      32.65200000 
H      35.61400000      41.80500000      30.07700000 
H      36.32700000      39.88900000      32.14900000 
H      34.17800000      41.79000000      32.10400000 
H      34.78100000      40.98600000      33.41800000 
H      36.05700000      42.97300000      31.97500000 
N      33.52200000      39.40200000      30.70700000 
C      32.60700000      37.98600000      30.70100000 
C      33.02700000      36.73300000      30.14600000 
O      32.61700000      35.77900000      30.58700000 
C      31.29400000      38.88700000      29.89200000 
H      33.42100000      39.74600000      30.35400000 
H      32.17900000      37.82600000      31.69200000 
H      30.56900000      37.79500000      29.82100000 
H      30.91400000      39.31600000      30.22700000 
H      31.53300000      38.90600000      28.94800000 
N      34.11700000      36.82300000      29.04800000 
C      34.70600000      35.83100000      28.83000000 
C      35.37800000      35.24200000      29.63900000 
O      35.48100000      33.75100000      29.97400000 
C      35.56400000      35.96800000      27.42300000 
C      34.68500000      36.43100000      26.21200000 
C      36.38800000      34.69700000      27.08800000 
C      35.60400000      36.67200000      25.03800000 
H      34.30200000      37.70100000      28.73500000 
H      33.84200000      34.96800000      28.40400000 
H      36.16300000      36.83600000      27.52400000 
H      34.09000000      35.46200000      25.96700000 
H      33.95400000      37.05400000      26.48900000 
H      37.01300000      34.93500000      26.18400000 
H      37.19100000      34.58700000      27.81800000 
H      35.80200000      33.89600000      26.91100000 
H      34.62700000      37.16300000      24.12300000 
H      35.98100000      37.67200000      25.28300000 
H      35.89900000      36.17800000      24.61600000 
N      36.24800000      35.66400000      30.72100000 
C      36.76200000      35.42400000      31.56400000 
C      36.17000000      34.38300000      32.71900000 
O      36.23600000      33.74900000      33.08400000 
C      37.88300000      36.58600000      32.38600000 
C      38.90500000      35.73000000      33.47100000 
O      38.19600000      36.00500000      34.83500000 
N      39.62400000      35.24100000      32.95400000 
H      36.29500000      36.77500000      30.40000000 
H      37.65200000      34.36100000      31.28200000 
H      38.37200000      36.76600000      31.64200000 
H      37.20200000      37.11500000      32.66600000 
H      40.37500000      34.76600000      33.99600000 
H      40.01500000      35.06800000      32.43900000 
N      34.74400000      35.28500000      33.06200000 
C      33.93500000      34.41500000      34.10100000 
C      33.37100000      33.47500000      33.72200000 
O      33.17000000      32.25600000      34.33900000 
C      32.85800000      35.48700000      34.08700000 
C      33.37600000      36.76800000      35.29700000 
O      34.29600000      36.68500000      35.80100000 
N      32.51600000      37.76000000      35.35000000 
H      34.74800000      36.04000000      32.72100000 
H      34.43200000      34.40600000      34.72000000 
H      32.34300000      35.95600000      33.35300000 
H      32.09400000      35.02500000      34.88600000 
H      32.61000000      38.58300000      35.82200000 
H      31.46300000      37.79400000      34.63000000 
N      33.15600000      33.16400000      31.71800000 
C      32.53200000      31.96700000      31.41100000 
C      33.47500000      30.80600000      31.67900000 
O      33.41000000      29.60600000      31.98500000 
C      32.29500000      32.10800000      30.26100000 
C      31.54300000      30.90200000      29.42300000 
C      30.06700000      30.51100000      30.14500000 
C      30.70000000      31.40900000      28.06700000 
H      33.21500000      34.06500000      31.46600000 
H      31.89200000      31.50500000      32.19300000 
H      31.19300000      33.01000000      30.16900000 
H      32.92800000      32.59400000      29.50100000 
H      32.16700000      30.27600000      29.34800000 
H      29.82400000      29.52400000      29.67700000 
H      30.71300000      29.84700000      31.28400000 
H      29.64200000      31.00500000      30.40700000 
H      30.68200000      30.59700000      27.55400000 
H      30.41900000      31.93600000      28.13000000 
H      31.84300000      31.81400000      27.48000000 
H      41.46251895      41.36463244      18.93279012 
H      34.15169749      44.63110205      13.68319961 
H      34.25707301      42.38968586      17.51226279 
H      30.80316751      41.63015657      16.53716473 
H      25.75930355      34.89082374      33.68546864 
H      26.15997501      34.40399210      30.35521115 
H      23.68450469      37.95989825      29.82720705 
H      27.00597326      37.87650085      25.59314958 
H      25.96374755      42.11968280      26.59063307 
H      27.02137961      44.01870071      22.04597717 
H      26.60595468      46.67167823      21.80075065 
H      27.57160314      48.59724727      18.84084047 
H      34.11795111      56.92834696      21.52085939 
H      34.46397376      30.94062161      31.61729161 
