165
Properties=species:S:1:pos:R:3 pbc="F F F"
N      44.47500000      42.07000000      48.87200000 
C      44.13000000      40.79200000      49.53900000 
C      43.40000000      39.86600000      48.59400000 
O      42.88100000      40.40700000      47.46200000 
C      43.23400000      40.93700000      50.76200000 
C      41.96200000      41.72500000      50.50300000 
C      40.78500000      41.18500000      51.23500000 
O      39.73900000      41.95400000      51.34600000 
O      40.80700000      39.99700000      51.62300000 
H      43.77800000      42.46800000      48.30200000 
H      44.98800000      40.30400000      49.79100000 
H      42.98600000      39.98400000      51.14100000 
H      43.88900000      41.45200000      51.55200000 
H      42.07500000      42.76300000      50.77700000 
H      41.73700000      41.72000000      49.47600000 
N      43.26000000      38.71300000      48.86400000 
C      42.49000000      37.66900000      48.11900000 
C      41.51100000      36.97200000      48.98500000 
O      41.87400000      36.75000000      50.19900000 
C      43.46900000      36.72800000      47.46100000 
C      44.28500000      37.34400000      46.38400000 
C      45.26000000      36.43400000      45.78000000 
N      46.07900000      37.02600000      44.77600000 
C      47.03000000      36.51400000      44.13500000 
N      47.72000000      37.19800000      43.19200000 
N      47.46200000      35.27300000      44.38100000 
H      43.80100000      38.28400000      49.63800000 
H      41.95900000      38.26300000      47.35600000 
H      44.03800000      36.21700000      48.23900000 
H      42.82600000      35.92500000      46.96800000 
H      43.71900000      37.79200000      45.69000000 
H      44.87300000      38.18000000      46.90900000 
H      45.94400000      36.00700000      46.55000000 
H      44.73200000      35.56400000      45.35700000 
H      45.67400000      37.92100000      44.39100000 
H      47.37900000      38.10900000      42.97300000 
H      48.45200000      36.80900000      42.72800000 
H      46.88700000      34.69000000      45.08400000 
H      48.12900000      34.86200000      43.93200000 
N      40.39400000      36.57000000      48.46900000 
C      39.49600000      35.74900000      49.18700000 
C      39.11200000      34.54200000      48.45200000 
O      39.01400000      34.56000000      47.21000000 
C      38.17400000      36.52900000      49.54700000 
C      38.52500000      37.83200000      50.35700000 
C      37.22600000      38.53700000      50.73200000 
C      37.51300000      39.93100000      51.22500000 
N      38.28100000      39.93400000      52.49000000 
H      40.18900000      36.83900000      47.56100000 
H      39.93900000      35.51300000      50.10000000 
H      37.70900000      36.84000000      48.61600000 
H      37.55400000      35.92500000      50.08500000 
H      39.07900000      37.54000000      51.22300000 
H      39.10200000      38.47800000      49.76300000 
H      36.54300000      38.56500000      49.87700000 
H      36.70900000      37.94300000      51.53100000 
H      37.99400000      40.48800000      50.48000000 
H      36.49500000      40.44600000      51.46000000 
H      38.39600000      40.92800000      52.75400000 
H      37.87600000      39.39300000      53.19900000 
H      39.26300000      39.66400000      52.20800000 
N      43.15100000      30.70000000      39.59600000 
C      42.00300000      31.47800000      40.16000000 
C      40.79200000      31.21500000      39.49400000 
O      39.71000000      31.87500000      39.70800000 
C      42.30100000      32.96300000      40.27200000 
C      43.55900000      33.24200000      41.12900000 
C      43.69800000      34.68400000      41.38000000 
O      43.20600000      35.57200000      40.63100000 
O      44.44400000      34.98600000      42.44100000 
H      43.62700000      31.17000000      38.84900000 
H      41.89300000      31.08000000      41.17500000 
H      42.46100000      33.37200000      39.17000000 
H      41.46500000      33.45200000      40.67600000 
H      43.51600000      32.71100000      41.98900000 
H      44.42600000      32.92400000      40.57000000 
N      38.16100000      35.78000000      44.20400000 
C      38.19900000      37.17200000      44.04700000 
C      39.26000000      37.84300000      44.72900000 
O      39.49800000      37.55100000      45.95800000 
C      36.73200000      37.76900000      44.50000000 
C      36.73000000      39.22900000      44.33500000 
C      35.66900000      37.07700000      43.69200000 
H      38.36700000      35.41900000      45.13100000 
H      38.24300000      37.38000000      42.91600000 
H      36.66100000      37.46900000      45.52300000 
H      35.75100000      39.59800000      44.61200000 
H      37.47100000      39.73700000      44.94500000 
H      36.93100000      39.53200000      43.30300000 
H      34.71500000      37.52800000      43.98700000 
H      35.80300000      37.31100000      42.62800000 
H      35.62800000      36.08000000      43.81800000 
N      39.94100000      38.76300000      44.11800000 
C      40.94600000      39.64400000      44.69900000 
C      40.31400000      40.89100000      45.10600000 
O      39.27700000      41.32500000      44.48400000 
C      42.01700000      39.94100000      43.70000000 
C      42.74800000      38.67200000      43.15000000 
C      43.81000000      39.10600000      42.21200000 
O      43.61300000      39.53900000      41.18000000 
O      45.06900000      38.99200000      42.70000000 
H      39.66100000      38.97300000      43.14800000 
H      41.37400000      39.10900000      45.56000000 
H      41.56900000      40.48900000      42.82500000 
H      42.77400000      40.57600000      44.16700000 
H      43.09800000      38.09300000      43.92400000 
H      42.03100000      38.09000000      42.58700000 
N      40.79700000      41.57200000      46.12600000 
C      40.30400000      42.90000000      46.51300000 
C      41.39400000      43.74200000      46.96200000 
O      42.09600000      43.36800000      48.00400000 
C      39.20100000      42.75300000      47.53200000 
O      38.10900000      42.00700000      47.00300000 
C      38.77700000      44.05000000      47.97000000 
H      41.57900000      41.16500000      46.67400000 
H      39.84500000      43.30400000      45.60600000 
H      39.56200000      42.20800000      48.35200000 
H      38.19400000      41.86700000      46.04500000 
H      37.84600000      44.01600000      48.60900000 
H      39.47200000      44.61800000      48.56800000 
H      38.49600000      44.74000000      47.14200000 
N      41.65500000      44.81400000      46.23400000 
C      42.79700000      45.61000000      46.56000000 
C      42.30700000      47.08100000      46.78100000 
O      41.66800000      47.58400000      45.93200000 
C      43.79400000      45.57100000      45.33400000 
C      44.02200000      44.13100000      45.00800000 
C      45.27300000      43.99300000      43.95500000 
C      45.43000000      42.51300000      43.62600000 
N      46.72000000      42.41000000      42.90400000 
H      41.13500000      45.04300000      45.46800000 
H      43.31800000      45.26600000      47.40800000 
H      43.38000000      46.13300000      44.53500000 
H      44.72200000      46.04400000      45.63600000 
H      44.21400000      43.54800000      45.82500000 
H      43.14800000      43.74200000      44.48600000 
H      45.01400000      44.55700000      43.10300000 
H      46.08400000      44.39500000      44.46900000 
H      45.50700000      41.93500000      44.51300000 
H      44.63200000      42.15900000      43.00600000 
H      46.82300000      41.42100000      42.58400000 
H      46.72800000      43.01800000      42.08200000 
H      47.50900000      42.63300000      43.49000000 
N      42.64400000      47.53600000      48.02100000 
C      42.04900000      48.83700000      48.31700000 
C      43.16600000      49.62600000      49.11100000 
O      43.66900000      49.19000000      50.01300000 
C      40.80700000      48.72200000      49.32900000 
C      40.12800000      50.03500000      49.38700000 
C      39.95000000      47.53200000      48.89900000 
H      43.13200000      47.09500000      48.60600000 
H      41.72700000      49.35500000      47.47600000 
H      41.23500000      48.44800000      50.27400000 
H      39.35500000      49.96200000      50.20000000 
H      40.71500000      50.81700000      49.56200000 
H      39.58000000      50.18100000      48.45200000 
H      39.11300000      47.50500000      49.54100000 
H      39.53800000      47.75900000      47.88300000 
H      40.42900000      46.63800000      48.89100000 
H      44.66892081      42.69078580      49.49410909 
H      38.92573340      33.69325155      48.94690485 
H      43.75610434      30.54505163      40.24395042 
H      40.74370374      30.48260033      38.81484008 
H      37.33791967      35.47722634      44.00184440 
H      43.44121229      50.53962805      48.81176435 
