547
Properties=species:S:1:pos:R:3 pbc="F F F"
N      31.65100000      20.60700000      25.04600000 
C      32.41900000      20.95300000      25.75400000 
C      33.58500000      21.79000000      25.12200000 
O      34.15900000      22.56800000      25.25300000 
C      32.81900000      20.15700000      27.06100000 
C      31.45000000      19.09600000      26.73700000 
C      31.18200000      19.32900000      25.42500000 
H      31.96200000      22.10200000      26.20500000 
H      33.49500000      19.64200000      26.55900000 
H      32.93700000      20.47800000      27.56100000 
H      31.70600000      18.33600000      27.22000000 
H      30.76000000      19.66500000      27.48800000 
H      31.44400000      18.49900000      24.90500000 
H      29.88700000      19.10800000      25.34600000 
N      34.45200000      21.10900000      24.30600000 
C      35.50200000      21.01800000      23.83100000 
C      35.57900000      22.04300000      23.04800000 
O      36.31800000      23.44100000      22.87600000 
C      36.28500000      19.92700000      22.88400000 
C      36.53500000      19.04900000      24.30500000 
C      37.21900000      20.44700000      22.20400000 
C      37.54300000      18.93200000      24.75900000 
H      33.76800000      19.82300000      23.94500000 
H      36.13600000      21.45200000      24.45600000 
H      35.43400000      19.58600000      22.26300000 
H      35.41200000      18.49500000      24.51100000 
H      36.80400000      17.80200000      23.30100000 
H      38.04100000      19.38400000      21.91400000 
H      37.25900000      20.93400000      21.49900000 
H      38.18300000      20.89900000      22.98700000 
H      37.63400000      18.19900000      25.74900000 
H      38.41700000      19.32300000      24.58000000 
H      37.18500000      20.04300000      25.70400000 
N      34.34500000      22.37400000      21.67900000 
C      34.38300000      23.39300000      20.88000000 
C      33.97700000      24.52400000      21.87500000 
O      34.73000000      25.84000000      21.35400000 
C      33.16900000      23.12500000      20.07400000 
C      32.86200000      24.18200000      19.30700000 
C      31.73900000      23.68500000      18.05500000 
O      30.28800000      24.49500000      18.18300000 
O      32.36700000      22.85600000      17.35700000 
H      34.04200000      21.43600000      21.72800000 
H      35.22200000      23.54200000      20.38100000 
H      33.39600000      22.25300000      19.45300000 
H      32.29000000      22.77700000      20.70800000 
H      32.26600000      24.99500000      19.79000000 
H      33.56600000      24.69200000      18.82900000 
N      33.29200000      24.53900000      22.79200000 
C      32.91000000      26.19000000      23.26600000 
C      34.14000000      26.23600000      24.25900000 
O      34.41100000      27.55900000      24.15600000 
C      32.00500000      25.56200000      24.72700000 
C      31.62100000      26.60300000      25.32800000 
C      31.07000000      28.09100000      24.68100000 
C      30.28400000      26.30500000      26.19200000 
H      32.84200000      23.71100000      23.02700000 
H      32.68200000      26.37300000      22.93500000 
H      30.84400000      25.06900000      23.86300000 
H      32.17900000      24.67100000      25.18000000 
H      32.24100000      26.99700000      25.85000000 
H      30.60700000      28.59500000      25.07900000 
H      31.80700000      28.24700000      23.87200000 
H      30.04600000      27.46300000      23.71800000 
H      30.03400000      27.16000000      27.03100000 
H      29.49200000      25.94400000      25.78800000 
H      30.76000000      25.33800000      27.03400000 
N      34.99800000      25.54000000      24.78100000 
C      36.26400000      25.86400000      25.30100000 
C      36.89000000      26.62000000      24.76800000 
O      37.79000000      27.58200000      24.60900000 
C      36.81500000      24.92900000      26.11800000 
C      35.92300000      24.47400000      27.47900000 
C      38.21300000      25.03000000      26.38400000 
C      36.47500000      22.92800000      28.11200000 
H      34.74000000      24.51600000      24.85200000 
H      35.94000000      26.77800000      26.18900000 
H      36.84700000      23.85700000      25.44200000 
H      36.12500000      25.16800000      28.17000000 
H      34.91400000      24.41300000      27.09800000 
H      38.71100000      24.23700000      27.20600000 
H      38.82100000      25.26300000      25.80200000 
H      38.25900000      26.15400000      27.25200000 
H      35.70400000      22.80800000      28.76600000 
H      36.15100000      22.24700000      27.15600000 
H      37.14100000      22.97800000      28.20100000 
N      37.25300000      25.95700000      23.33700000 
C      37.89500000      26.40300000      22.20900000 
C      37.81900000      27.76900000      21.87400000 
O      38.44800000      28.65900000      21.56500000 
C      38.02800000      25.06800000      21.03400000 
C      38.99600000      24.24500000      21.63500000 
O      39.57100000      24.10600000      22.55700000 
N      38.80800000      23.17400000      20.55500000 
H      36.70500000      24.94700000      23.10200000 
H      39.25300000      26.58000000      22.80500000 
H      37.22600000      25.23800000      20.84500000 
H      38.74800000      26.01100000      20.16400000 
H      39.29100000      22.37400000      20.79800000 
H      38.20900000      23.25900000      19.70500000 
N      36.46200000      27.91200000      21.63700000 
C      35.90000000      29.35100000      21.24800000 
C      36.11900000      30.01300000      21.96300000 
O      36.81100000      31.62600000      21.79800000 
C      34.35100000      29.03700000      20.93900000 
C      33.81300000      30.44700000      20.62600000 
C      34.36000000      31.33000000      19.24800000 
C      32.30400000      30.29700000      20.67500000 
H      35.63100000      27.13600000      21.80500000 
H      36.38800000      29.51900000      20.22500000 
H      34.18700000      28.48200000      20.25300000 
H      33.89700000      28.70800000      22.04500000 
H      33.84500000      31.19800000      21.64800000 
H      33.80900000      31.95900000      19.30100000 
H      35.31500000      31.29500000      19.66100000 
H      34.20500000      30.47500000      18.70800000 
H      31.67500000      31.33000000      20.31500000 
H      32.02600000      29.54100000      19.56700000 
H      31.71800000      29.73200000      21.48100000 
N      36.10900000      30.30300000      24.01900000 
C      36.29800000      31.01700000      24.27600000 
C      38.13200000      30.96600000      24.44500000 
O      38.14500000      32.45900000      24.59300000 
C      36.09700000      30.84300000      25.72800000 
S      34.09500000      30.99000000      26.41100000 
H      35.51900000      28.99900000      23.69400000 
H      35.75000000      31.77300000      24.46200000 
H      36.61100000      29.28100000      25.92500000 
H      36.59700000      31.07200000      26.73600000 
H      34.05200000      31.39700000      26.33100000 
N      38.55000000      30.46000000      24.28200000 
C      39.88600000      30.36900000      24.08500000 
C      40.60900000      31.48800000      23.16500000 
O      41.16700000      32.35800000      23.28900000 
C      40.45100000      29.20300000      23.83700000 
O      40.13400000      28.05300000      25.18100000 
C      42.51100000      28.99300000      24.12200000 
H      38.25200000      29.41200000      24.17800000 
H      40.45500000      30.92400000      25.23100000 
H      40.34700000      28.72300000      23.18400000 
H      39.79700000      28.02000000      25.04800000 
H      42.59000000      28.36500000      23.76400000 
H      42.50200000      29.89400000      22.98900000 
H      42.55300000      29.63300000      24.62700000 
N      39.67000000      30.89100000      21.65000000 
C      40.10900000      31.93700000      20.95600000 
C      39.77400000      33.18200000      20.85400000 
O      40.49300000      34.26200000      20.36600000 
C      39.56900000      30.96200000      19.56100000 
C      40.00100000      29.91400000      19.01100000 
O      41.76100000      29.53600000      19.78000000 
N      39.78900000      28.93400000      18.41900000 
H      39.38700000      30.46400000      21.83500000 
H      41.46000000      31.87900000      20.63000000 
H      38.67900000      31.09500000      19.65600000 
H      39.80100000      31.91500000      18.58300000 
H      39.94600000      28.41400000      18.20800000 
H      38.71400000      29.28700000      18.10100000 
N      38.76600000      33.55800000      21.32000000 
C      37.99300000      34.62000000      21.46000000 
C      38.64600000      35.99700000      21.81500000 
O      38.90200000      36.83800000      21.88200000 
C      36.79300000      34.68200000      22.22900000 
H      37.99800000      32.65200000      21.73300000 
H      37.90500000      35.18600000      20.35900000 
H      36.14900000      35.76400000      22.14800000 
H      35.96300000      33.95700000      21.48800000 
H      36.75600000      34.37700000      22.94200000 
N      39.85200000      35.28700000      23.26000000 
C      40.44200000      36.33700000      23.80200000 
C      41.50400000      37.16800000      23.31000000 
O      42.11600000      37.78000000      23.34800000 
C      41.13900000      35.54500000      24.92500000 
C      40.03900000      35.19800000      25.98700000 
C      40.75900000      34.46300000      27.25800000 
C      39.00600000      36.62900000      26.89100000 
H      39.68000000      34.28700000      23.30400000 
H      39.88200000      37.11400000      24.09400000 
H      41.58500000      34.71400000      24.76900000 
H      41.81900000      36.33500000      25.48700000 
H      39.34400000      34.61300000      25.72300000 
H      40.12500000      34.35300000      28.01100000 
H      41.21100000      33.81000000      26.99100000 
H      41.42600000      35.23200000      27.69500000 
H      38.81300000      36.31300000      27.26800000 
H      40.05100000      37.27000000      26.89900000 
H      38.72700000      36.94700000      25.79100000 
N      42.00100000      36.56700000      21.59500000 
C      42.65100000      36.82300000      20.90800000 
C      41.96400000      38.65100000      19.86200000 
O      43.02300000      38.74400000      19.42800000 
H      41.23300000      35.45500000      21.32600000 
H      43.64700000      37.37100000      21.52900000 
H      43.20400000      36.29100000      20.29400000 
N      41.16300000      38.23900000      20.14700000 
C      40.28400000      39.43300000      18.86500000 
C      40.56400000      40.81300000      19.71500000 
O      40.59200000      41.11300000      20.69900000 
C      39.07700000      38.83100000      18.92300000 
C      38.68600000      38.17400000      17.95700000 
O      38.48000000      36.50600000      18.41000000 
N      38.80200000      38.21200000      16.50700000 
H      40.15900000      37.74700000      20.80600000 
H      40.83100000      39.26300000      18.22300000 
H      38.39100000      38.77200000      19.88600000 
H      38.28900000      40.01100000      18.55200000 
H      38.70600000      37.67200000      16.11800000 
H      38.89300000      39.06800000      16.44200000 
N      40.36700000      41.56100000      18.50800000 
C      40.45500000      43.34500000      19.06200000 
C      39.06600000      43.55300000      19.01300000 
O      38.20500000      44.10800000      17.80000000 
C      41.27500000      43.84000000      17.61800000 
C      42.56000000      43.86100000      17.60600000 
C      43.00200000      44.54200000      18.52900000 
O      42.83200000      45.84300000      18.81000000 
N      44.50400000      44.17800000      19.81700000 
H      40.26500000      41.29000000      17.55700000 
H      40.90300000      43.19800000      19.63100000 
H      40.68900000      43.42100000      16.71800000 
H      40.87500000      44.78000000      17.72500000 
H      42.92600000      42.34400000      18.11400000 
H      43.03700000      43.75900000      16.90200000 
H      44.50500000      43.16500000      19.48500000 
H      44.53600000      44.59600000      19.98700000 
N      38.46800000      43.54500000      20.05600000 
C      36.88500000      43.75000000      20.30600000 
C      37.27100000      45.21600000      20.31600000 
O      35.24700000      45.78300000      20.29500000 
C      36.54200000      43.05300000      21.62800000 
C      36.54900000      41.67600000      21.70200000 
C      35.58900000      41.36300000      20.77100000 
C      37.26800000      41.17200000      22.43600000 
C      35.39600000      39.60900000      20.61700000 
C      37.40200000      39.32000000      22.44800000 
C      36.51300000      38.91600000      21.63200000 
H      39.09100000      42.98800000      21.11200000 
H      36.52200000      43.39700000      19.69300000 
H      37.37000000      43.62500000      22.64300000 
H      35.63600000      43.69400000      21.98600000 
H      35.01800000      41.72500000      20.26900000 
H      38.11300000      41.42900000      23.14100000 
H      34.94800000      39.37800000      20.15400000 
H      37.85200000      39.07900000      22.86700000 
H      36.34800000      37.98100000      21.46600000 
N      34.97900000      42.19800000      14.97500000 
C      35.28500000      41.57500000      16.21300000 
C      34.08300000      41.00800000      16.96000000 
O      33.80100000      39.79900000      17.26600000 
C      36.49300000      41.32100000      16.83800000 
H      35.71000000      43.15500000      15.12200000 
H      35.58500000      40.10300000      15.43300000 
H      36.69600000      40.87300000      17.65700000 
H      37.53500000      41.65700000      16.28400000 
H      36.39600000      42.62300000      17.43100000 
N      32.41800000      37.44500000      16.87400000 
C      32.45700000      36.62800000      18.17800000 
C      31.26900000      36.03600000      18.70500000 
O      30.80700000      35.38800000      19.12800000 
C      33.53600000      37.25800000      18.94100000 
C      33.41200000      36.25600000      20.51500000 
C      34.80600000      37.32800000      18.67200000 
H      32.82700000      38.32300000      16.97700000 
H      32.78000000      35.55500000      17.76500000 
H      33.21700000      38.08600000      19.33600000 
H      34.28900000      36.71000000      21.06200000 
H      32.59500000      36.25400000      20.78100000 
H      33.81400000      35.15600000      20.06300000 
H      35.59300000      37.36900000      19.12000000 
H      35.15500000      35.88700000      18.00200000 
H      34.92700000      37.78800000      17.55300000 
N      29.67000000      33.57200000      16.72500000 
C      30.23800000      32.59300000      16.97500000 
C      29.61300000      31.67900000      18.36200000 
O      29.34200000      30.75300000      18.23100000 
C      31.86500000      32.37600000      16.93300000 
C      32.33100000      32.86900000      16.22300000 
C      34.05000000      33.47600000      16.28200000 
O      34.06500000      33.71100000      16.77400000 
N      34.93300000      32.49800000      15.09000000 
H      30.17100000      34.50900000      16.59100000 
H      30.01100000      31.72300000      16.11900000 
H      31.94100000      33.53800000      17.97400000 
H      32.10800000      31.70100000      17.58900000 
H      32.31300000      31.96800000      15.10600000 
H      31.95300000      33.86400000      15.28100000 
H      34.52300000      32.13000000      14.63200000 
H      35.49200000      32.78000000      15.29300000 
N      29.56100000      32.62800000      19.32000000 
C      28.84600000      32.11000000      20.31000000 
C      27.55700000      31.28600000      20.33000000 
O      27.28600000      30.72200000      20.52900000 
C      28.89400000      33.24400000      21.65100000 
C      30.22700000      33.05900000      22.20500000 
C      30.58100000      31.82500000      23.41400000 
C      31.32000000      34.24500000      22.13500000 
C      31.89700000      32.08300000      23.71600000 
C      32.58400000      34.10500000      22.65900000 
C      32.92800000      32.88800000      23.81800000 
H      29.84100000      33.51400000      19.26100000 
H      29.59900000      31.05700000      20.80900000 
H      28.78900000      33.88500000      21.30400000 
H      28.27000000      32.78500000      22.31900000 
H      29.91400000      31.27400000      23.34400000 
H      31.03800000      34.77400000      21.48800000 
H      32.07900000      31.12500000      24.57200000 
H      33.12500000      34.72900000      22.62500000 
H      33.60200000      32.95300000      24.06300000 
N      26.79700000      28.09000000      18.98200000 
C      27.55700000      26.63300000      19.12400000 
C      26.06700000      25.96000000      19.87600000 
O      26.29500000      24.43000000      20.09400000 
C      28.39500000      26.69400000      20.24900000 
C      29.74800000      27.52300000      19.57900000 
C      28.21400000      27.39000000      21.81200000 
H      26.99700000      28.79400000      19.31300000 
H      27.47400000      26.19800000      18.59300000 
H      28.62900000      25.78200000      20.48300000 
H      30.35500000      27.41900000      20.24900000 
H      29.81700000      27.01300000      18.77100000 
H      29.30300000      28.49000000      19.40600000 
H      28.81600000      27.42700000      22.18800000 
H      27.68100000      28.54700000      21.42100000 
H      27.14000000      26.89500000      22.10000000 
N      27.47100000      37.57500000      28.44100000 
C      28.49300000      37.78400000      27.38500000 
C      27.91700000      38.31300000      26.07600000 
O      28.33500000      38.91500000      25.43400000 
C      29.05200000      36.18700000      27.14800000 
C      29.85100000      36.16300000      26.10500000 
C      31.41600000      36.99500000      26.06300000 
C      30.34600000      34.80700000      25.80300000 
H      27.36500000      36.86900000      28.88400000 
H      29.28200000      38.46700000      27.59700000 
H      29.65800000      36.10200000      28.12700000 
H      28.27900000      35.63000000      27.14100000 
H      29.39300000      36.25900000      25.10500000 
H      31.76600000      36.98500000      25.15700000 
H      30.65100000      38.34900000      25.89000000 
H      31.60500000      37.08300000      26.84600000 
H      31.13200000      34.54500000      25.18600000 
H      31.25400000      34.55000000      26.95500000 
H      29.79000000      34.03200000      26.06400000 
N      34.53600000      46.71900000      25.23000000 
C      35.69200000      45.76400000      24.92100000 
C      36.09900000      45.11000000      26.49800000 
O      36.21400000      43.72800000      26.48500000 
C      36.98800000      46.63300000      24.69100000 
O      36.52900000      46.90400000      23.22300000 
C      38.27100000      46.09000000      24.62000000 
H      34.73300000      47.49100000      24.95500000 
H      35.51300000      45.01500000      24.46000000 
H      37.02400000      47.33300000      25.16900000 
H      36.85300000      47.89100000      23.10900000 
H      38.84400000      46.27900000      24.19200000 
H      38.51300000      45.46400000      25.54400000 
H      38.05600000      44.70000000      23.90000000 
N      36.02200000      46.14100000      27.48400000 
C      36.42900000      45.21000000      28.72300000 
C      35.28200000      44.33000000      29.22500000 
O      35.54200000      43.39900000      29.68000000 
C      36.81700000      46.67200000      29.66500000 
C      36.68800000      45.80400000      31.19100000 
C      37.70800000      47.25200000      29.23700000 
H      35.95200000      46.72100000      27.39600000 
H      37.22500000      44.80100000      28.72700000 
H      35.63600000      47.09900000      29.73400000 
H      36.95100000      46.82400000      31.95200000 
H      35.78000000      45.33900000      31.55100000 
H      37.52900000      45.16100000      31.21200000 
H      37.93800000      48.09600000      30.14800000 
H      38.76400000      46.55100000      29.47200000 
H      37.73000000      47.64800000      28.54700000 
N      33.27800000      42.75100000      27.10900000 
C      33.58400000      41.06700000      26.70200000 
C      34.21200000      40.41900000      27.25300000 
O      34.19300000      39.21700000      27.44200000 
C      33.66400000      41.72700000      25.07200000 
C      32.32000000      42.11600000      24.36100000 
C      34.09000000      40.16900000      24.41200000 
C      32.75200000      43.14000000      23.18800000 
H      33.43500000      43.41200000      26.88000000 
H      32.37900000      40.83800000      26.70000000 
H      34.64000000      42.38400000      25.19600000 
H      31.89700000      41.54000000      24.29500000 
H      32.10500000      43.06200000      25.16700000 
H      34.35200000      40.57800000      23.45200000 
H      35.09200000      39.95700000      24.88400000 
H      33.47900000      39.66600000      24.52700000 
H      32.14100000      43.36600000      22.73400000 
H      33.72300000      43.74600000      23.35400000 
H      33.48700000      42.11200000      22.36900000 
N      35.62900000      41.05500000      27.38400000 
C      36.66000000      40.04400000      27.86200000 
C      36.49100000      39.62000000      29.12800000 
O      36.69000000      38.35400000      29.67200000 
C      37.83800000      40.98100000      27.93900000 
C      38.48900000      41.02500000      26.45200000 
C      39.76900000      41.97400000      26.39800000 
N      40.25700000      41.80800000      24.94800000 
C      40.82200000      40.74700000      24.32800000 
N      41.25400000      39.45100000      25.48700000 
N      41.21400000      40.60500000      23.11700000 
H      35.73600000      41.82500000      27.31200000 
H      36.73300000      39.30900000      27.29700000 
H      37.83600000      41.76000000      28.32900000 
H      38.80500000      40.29100000      28.42500000 
H      38.53400000      40.11200000      25.96100000 
H      37.48900000      41.69200000      25.81000000 
H      39.46900000      42.90500000      26.50000000 
H      40.32000000      41.60400000      27.01700000 
H      40.10100000      42.42600000      24.39300000 
H      40.94200000      39.71700000      26.42400000 
H      41.50000000      38.97600000      25.08700000 
H      40.93800000      41.01200000      22.76800000 
H      41.57300000      39.81700000      23.11900000 
N      35.64800000      40.47800000      30.29300000 
C      35.50600000      39.94700000      31.41200000 
C      34.46400000      39.03500000      31.36600000 
O      34.57400000      37.85800000      32.14300000 
C      34.95300000      41.28100000      32.30900000 
O      35.79800000      42.42700000      32.06700000 
H      35.57700000      41.36400000      29.78200000 
H      36.24400000      39.75100000      31.95200000 
H      33.87700000      41.55900000      31.58200000 
H      34.51800000      40.92400000      33.11100000 
H      35.81000000      42.68400000      31.64600000 
N      33.40400000      38.90000000      30.58400000 
C      32.48800000      37.88100000      30.28100000 
C      32.99100000      36.69200000      30.09800000 
O      32.63200000      35.68000000      30.41900000 
C      31.47100000      38.72500000      29.63200000 
H      33.36700000      39.91000000      29.96800000 
H      32.05000000      37.79300000      31.51700000 
H      30.40500000      37.54000000      29.43000000 
H      30.87400000      39.33600000      29.92200000 
H      31.66000000      38.72700000      28.64500000 
N      34.02200000      36.85900000      28.84000000 
C      34.35900000      35.43300000      28.67300000 
C      35.26300000      35.15500000      29.44300000 
O      35.22600000      33.50900000      29.80800000 
C      35.19400000      35.92800000      27.09800000 
C      34.58000000      36.03000000      26.22800000 
C      36.53000000      34.67800000      26.92000000 
C      35.47800000      36.73200000      24.65400000 
H      34.15500000      37.69900000      28.52000000 
H      33.87200000      34.95100000      28.17700000 
H      36.21400000      36.80100000      27.60300000 
H      34.05600000      35.51800000      25.79800000 
H      33.85200000      37.13500000      26.46600000 
H      36.80800000      34.83600000      26.11500000 
H      36.94300000      34.41200000      27.72800000 
H      35.53700000      33.70800000      26.77200000 
H      34.77500000      37.16400000      24.16900000 
H      36.07300000      37.81600000      25.33100000 
H      35.99800000      36.16300000      24.60500000 
N      36.10300000      35.85200000      30.40300000 
C      36.92500000      35.17800000      31.39300000 
C      35.98900000      34.23100000      32.47400000 
O      36.08100000      33.48000000      32.87800000 
C      37.33000000      36.32800000      32.34500000 
C      37.99000000      35.69800000      33.60300000 
O      37.90500000      35.79400000      34.26100000 
N      39.59600000      34.94400000      33.49200000 
H      36.11200000      36.56400000      30.19100000 
H      37.39900000      34.40900000      31.14000000 
H      38.30500000      36.71000000      31.35800000 
H      36.95500000      36.86300000      32.42500000 
H      39.79000000      34.78700000      33.66800000 
H      39.84700000      35.00600000      32.14900000 
N      33.02600000      33.35600000      31.95900000 
C      32.15100000      31.91000000      31.40800000 
C      33.49500000      30.92200000      31.48000000 
O      33.20600000      29.54500000      31.88300000 
C      32.37400000      32.23000000      30.07000000 
C      31.35100000      30.68800000      29.23200000 
C      30.40500000      30.19900000      30.11900000 
C      30.79500000      31.12600000      27.90500000 
H      33.02300000      33.93200000      31.32700000 
H      31.73900000      31.61500000      31.93100000 
H      31.05500000      33.07100000      29.99300000 
H      32.76000000      32.56300000      29.39800000 
H      32.21800000      30.26000000      29.20600000 
H      29.83600000      29.48500000      29.43200000 
H      30.61800000      29.95600000      30.96100000 
H      29.45500000      31.15200000      30.26900000 
H      30.66200000      30.46700000      27.35000000 
H      30.03600000      32.06400000      27.95600000 
H      31.97300000      31.93100000      27.19600000 
N      34.90600000      31.06100000      31.05500000 
C      35.79500000      30.25600000      31.23600000 
C      35.91800000      29.39700000      32.60300000 
O      36.11700000      28.55700000      32.37400000 
C      37.06600000      31.10700000      30.37300000 
C      37.09200000      31.18500000      29.22700000 
C      38.27200000      29.83000000      31.20000000 
C      38.28800000      31.90500000      28.63500000 
H      34.92700000      32.36500000      30.71100000 
H      35.56000000      29.46200000      30.31500000 
H      37.11500000      31.99900000      31.22100000 
H      37.15900000      30.22400000      28.67300000 
H      36.15500000      31.64100000      28.87400000 
H      39.30600000      30.68500000      30.68800000 
H      38.38700000      30.09200000      32.15800000 
H      38.28700000      29.30200000      30.69900000 
H      38.16300000      32.28800000      27.58400000 
H      38.19600000      33.19400000      29.32800000 
H      39.16600000      31.64500000      28.87100000 
N      33.52500000      27.07200000      32.83100000 
C      33.27500000      25.64900000      32.05300000 
C      35.14200000      24.69200000      32.50900000 
O      34.78200000      23.85400000      32.44900000 
C      34.03100000      26.29800000      30.43300000 
C      32.81400000      27.03000000      29.75500000 
C      33.20100000      27.22000000      28.55800000 
C      31.15000000      26.27700000      30.09100000 
H      33.66900000      27.84800000      32.53300000 
H      33.11800000      25.32700000      32.00800000 
H      34.89500000      26.94600000      30.53500000 
H      34.17300000      25.39600000      29.98800000 
H      32.65600000      28.05100000      30.61100000 
H      32.21900000      27.92200000      28.05400000 
H      34.02000000      27.89000000      28.42600000 
H      33.15300000      26.44600000      27.98200000 
H      30.83200000      26.68300000      29.65500000 
H      31.67600000      25.12200000      29.58500000 
H      31.19800000      26.08900000      31.12200000 
H      30.85038863      20.94253656      25.28356400 
H      38.23573297      45.47895499      20.32804032 
H      35.19485062      41.64469737      14.29878649 
H      33.36516573      41.62076632      17.29050174 
H      32.86418527      37.00320748      16.22922246 
H      30.39299580      36.51041717      18.61813809 
H      29.22767321      33.47253382      15.94753393 
H      26.72802868      31.64394861      19.90025666 
H      26.78053038      28.33718698      18.11676746 
H      25.29175844      26.56000771      20.07346209 
H      27.59408771      38.17433733      29.10103347 
H      26.99843218      38.04201746      25.78824729 
H      33.79039104      46.43218972      24.81550374 
H      34.33532577      44.63478722      29.12053636 
H      32.39256569      42.91019330      27.08324013 
H      35.08898694      34.55182152      32.76904244 
H      32.61776951      33.69544635      32.68572143 
H      35.77438367      29.84125162      33.48731604 
H      32.80814851      27.26652089      33.33921802 
H      35.95774376      25.24401651      32.68174227 
