 188 
 
N               203.2365761172       65.3809880633      120.0043189876
C               204.5165712689       64.7005443994      120.1522720398
C               205.5369552156       65.6928004975      120.7181149290
O               205.6868461865       66.8025154459      120.2166752424
C               204.9954437333       64.1278663858      118.8092411541
C               203.9704179044       63.1494108731      118.2206342575
C               206.3512230067       63.4479568768      118.9955403292
C               204.1641124202       62.9569885243      116.7202931384
H               202.9175702209       65.5793979021      119.0607446091
H               204.3706222802       63.8899718058      120.8762420876
H               205.1032270623       64.9754412012      118.1278372215
H               204.0622073067       62.1914578282      118.7343204078
H               202.9635674971       63.5309486648      118.3926988230
H               206.6996355438       63.0304490419      118.0561841912
H               207.1067320810       64.1392641741      119.3609980378
H               206.2754713698       62.6321699288      119.7115061101
H               203.4059681850       62.2815202862      116.3348849905
H               204.0675164099       63.9145524773      116.2155990764
H               205.1403967062       62.5344592489      116.5005713443
N               206.2044578804       65.2837040015      121.8010541683
C               207.2049076188       66.0795005550      122.4805593259
C               208.5791604019       65.8875754376      121.8141841241
O               208.7570382967       65.0708344031      120.9241038558
C               207.2525561817       65.6732113507      123.9509928833
H               206.1336430029       64.3208768826      122.0928425602
H               206.9207520523       67.1339301607      122.3782806594
H               207.9186925959       66.3255067423      124.5067614912
H               206.2547720585       65.7421801190      124.3753757541
H               207.6162060492       64.6514570151      124.0433695136
N               212.6680313895       65.2169833325      122.8090733736
C               213.5976194072       64.7465760946      123.8094358475
C               214.9968491304       65.1838094079      123.3825966069
O               215.6153724282       64.6377639267      122.4788266645
C               213.6126429838       63.2348158523      124.0073793051
C               214.8590929154       62.8801167191      124.8640472249
O               215.2825828985       63.8069241456      125.6067067573
O               215.3602114560       61.7546562648      124.7628743739
H               212.7519877105       64.8433614567      121.8683232965
H               213.3230326438       65.2323532515      124.7519861419
H               212.7122591143       62.8918741357      124.5185285086
H               213.6866812623       62.7019421737      123.0577005078
N               214.7876751948       71.3990561731      111.3772391387
C               214.9215594384       72.0256543334      112.6667044222
C               216.3221239824       72.6146254050      112.8032887974
O               217.3079081781       72.0484196966      112.3448838670
C               214.7772597629       70.9943277881      113.8060896554
C               213.4512068305       70.2936005765      113.8130813028
C               213.1994207131       69.2705711591      112.9060810554
C               212.4728661248       70.6136097441      114.7434522798
C               212.0104308667       68.5722689079      112.9289423675
C               211.2861205181       69.9027966124      114.7935196248
C               211.0561266638       68.8734690867      113.8917308584
O               209.9085788057       68.1281101018      113.9309823882
H               215.5354588995       70.7644970510      111.1341473171
H               214.1622641683       72.8090829807      112.7368999036
H               215.5704579865       70.2573993372      113.6606038189
H               214.9408512039       71.5105806593      114.7532096797
H               213.9582655918       69.0063755867      112.1877598879
H               212.6415283546       71.4089154090      115.4540277691
H               211.8289761188       67.7941119433      112.2090719723
H               210.5494038519       70.1470800343      115.5464059768
H               209.3648890081       68.4184891426      114.6752293223
N               215.0667512425       65.1073934612      114.0664725573
C               214.1456869977       64.6280321848      115.0762386689
C               213.6073083088       63.2648046201      114.6388195521
O               213.1853875527       63.0783544948      113.5055198370
C               212.9906910577       65.6377349097      115.2572041537
C               211.9858504598       65.1168219452      116.2795453486
C               213.5485910979       66.9847234871      115.7084556068
H               214.7459636931       65.0194227510      113.1127397105
H               214.6923873046       64.5265056445      116.0144552029
H               212.5005040961       65.7552539901      114.2859739100
H               211.1872653165       65.8386289592      116.4234396293
H               211.5549494568       64.1671370468      115.9716184687
H               212.4741690162       64.9542372261      117.2390905862
H               212.7423940385       67.6936211765      115.8676248231
H               214.0903172266       66.8613846218      116.6428669206
H               214.2305569916       67.3994830320      114.9709904658
N               213.6685964117       62.3184358511      115.5838986198
C               213.0103813387       61.0318551108      115.4624684468
C               211.5142311560       61.3233803772      115.6272600363
O               211.0554392365       61.8012484718      116.6604006932
C               213.5264403021       60.0832821577      116.5313634889
C               212.7056221203       58.7697283966      116.5755305644
O               213.3027568536       57.6989527771      116.7333773909
O               211.4640694541       58.9065661548      116.4339344558
H               213.9561724709       62.5855281547      116.5156629318
H               213.2104430145       60.6309949233      114.4616237507
H               214.5835012460       59.8515357669      116.3912154092
H               213.3959184791       60.5381456836      117.5173359649
N               210.7780335348       61.2523884146      114.5085206988
C               209.4000281112       61.7025628941      114.4855580763
C               208.4573659059       60.8210850504      115.3195653665
O               207.3460711742       61.2305598958      115.6267212335
C               208.8678145723       61.8052390372      113.0456975453
C               208.7568064452       63.2383759518      112.5235169990
C               210.1016105758       63.9713188115      112.4677386520
C               210.0765477762       65.1263447202      111.4733020646
N               209.1541037419       66.2141052427      111.9092038059
H               211.1545541043       60.8090784056      113.6852086593
H               209.3742744365       62.6825504802      114.9785819740
H               209.5193778839       61.2204985977      112.3953557281
H               207.8773821850       61.3476731690      113.0177011000
H               208.3430897659       63.1677517303      111.5161644211
H               208.0468377495       63.7649358118      113.1627952311
H               210.3955167026       64.3183532139      113.4584978629
H               210.8815642804       63.2781473846      112.1522012203
H               211.0816508251       65.5320849342      111.3657086748
H               209.7390035606       64.7532968946      110.5058053597
H               209.0409536370       66.9141384054      111.1625220790
H               208.2320208168       65.8130136454      112.1312985104
H               209.5139392047       66.7062340582      112.7545324367
N               208.9030176262       59.5875566269      115.5776663993
C               208.1463247561       58.6353241409      116.3527782761
C               208.1508528067       58.9516771242      117.8497594421
O               207.1184017769       58.9262150460      118.5043643710
C               208.7168439548       57.2270952900      116.1029034998
O               208.6896511598       57.0205222281      114.7050283907
C               207.9103321288       56.1539513379      116.8316962348
H               209.8925389567       59.3865629065      115.5022874505
H               207.1032734679       58.6788692440      116.0167407103
H               209.7587342564       57.2271509178      116.4616151302
H               209.1553242427       56.1987759560      114.5050788715
H               208.4072131173       55.1913369266      116.7409563718
H               207.8170521178       56.4031734872      117.8843489429
H               206.9167376563       56.0897912595      116.3960165855
N               209.3518656208       59.2398985710      118.3839295790
C               209.4853403953       59.4028999018      119.8129410120
C               210.0731982004       60.7484863872      120.2673462965
O               210.1240436214       61.0240425668      121.4622997495
C               210.2821929299       58.2617071380      120.4569354080
C               211.7853522058       58.4410811669      120.2731927426
O               212.2542036330       59.3945652520      119.6543045972
N               212.5245655308       57.5033724125      120.8590293569
H               210.1939025674       59.1583261272      117.8167845615
H               208.4581458804       59.3758603910      120.2048080708
H               210.0886281305       58.2616105410      121.5306312136
H               209.9759558313       57.3046296781      120.0338630227
H               213.5490116007       57.5945958510      120.9212476297
H               212.0875554747       56.7631564741      121.3801876890
N               210.4039277388       61.5899837987      119.2906778214
C               210.8333501638       62.9456387973      119.4833439563
C               212.2850238726       63.2011988792      119.8557041621
O               212.6372229153       64.3473915485      120.1500201849
H               210.4635403901       61.2323345513      118.3440421406
H               210.6689730623       63.4732781795      118.5405667422
H               210.2150573588       63.4225769465      120.2529413692
N               213.1512349862       62.1919929244      119.8203291057
C               214.5542144076       62.4287531458      120.1106005002
C               215.1342032434       63.4316510248      119.1103080056
O               214.7429383689       63.4923165895      117.9494995298
C               215.3722614309       61.1443298312      120.0202342976
C               215.0608551060       60.1629972284      121.1384001510
C               215.8369035212       58.8318158688      120.9283015738
O               215.2342760674       57.7727400862      121.2192830717
O               217.0025854884       58.8998393705      120.5053633162
H               212.8404206089       61.2444209351      119.6422088543
H               214.6591320171       62.8531951336      121.1178354360
H               215.1807477541       60.6578786421      119.0591481501
H               216.4346480858       61.3930095134      120.0676635265
H               215.3588083159       60.5760733084      122.1079545700
H               213.9950941270       59.9378564093      121.1771184409
N               206.3604998793       68.5243269023      118.0404137558
C               206.5361286104       68.3066331820      116.6176595638
C               205.3353888685       68.8905932659      115.8635061153
O               204.2043588525       68.8310247141      116.3390711039
C               206.6859826078       66.7971526477      116.3417103247
C               206.8324574960       66.4764303936      114.8557764191
C               207.8917197589       66.2548457542      117.1091871890
H               205.9779504754       67.7880621768      118.6255070199
H               207.4382939106       68.8608281366      116.3326661050
H               205.7761354090       66.3217888935      116.7186122638
H               206.9084077651       65.3968612568      114.7609845231
H               205.9764647693       66.8194690933      114.2826633320
H               207.7325897017       66.9383504259      114.4654596625
H               207.9831029834       65.1835648596      116.9582239765
H               208.8086964953       66.7333931798      116.7749956977
H               207.7984196045       66.4289806367      118.1781258983
H               202.5861599760       64.8814294458      120.3749940892
H               209.3588724030       66.4405362035      122.1079248035
H               211.8274753024       65.0213555152      123.0644069232
H               215.4459513892       65.9466765965      123.8477211211
H               214.0250353749       70.9217859425      111.3528745735
H               216.4543836940       73.4852975546      113.2770370181
H               215.2310576198       65.9820374747      114.2006413469
H               215.8546100738       64.0634551136      119.3963807100
H               207.1572047554       68.7073358067      118.4169361075
H               205.4679330098       69.3265152408      114.9733352989
