121
Properties=species:S:1:pos:R:3 pbc="F F F"
N      43.55500000      29.08800000      26.68600000 
C      43.73100000      29.72500000      27.98600000 
C      45.23100000      29.89200000      28.25900000 
O      46.02400000      29.02700000      27.89200000 
C      43.13000000      28.86800000      29.10800000 
C      41.63200000      29.02900000      29.39200000 
C      40.76100000      28.92200000      28.13100000 
C      41.22200000      27.91900000      30.39700000 
H      43.80900000      28.13400000      26.62800000 
H      43.25800000      30.70500000      27.95500000 
H      43.35800000      27.82200000      28.86700000 
H      43.66500000      29.08000000      30.04200000 
H      41.47800000      29.96500000      29.82900000 
H      39.69900000      28.94800000      28.42400000 
H      40.92300000      29.73600000      27.46200000 
H      40.92600000      27.98800000      27.60600000 
H      40.17300000      28.04400000      30.68000000 
H      41.33100000      26.93700000      29.95400000 
H      41.81500000      27.96300000      31.28700000 
N      45.58300000      30.96900000      28.97400000 
C      46.92500000      31.16000000      29.49900000 
C      46.93100000      30.76000000      30.98800000 
O      45.95900000      30.96900000      31.69500000 
C      47.38700000      32.65100000      29.31100000 
C      46.67800000      33.64500000      30.21500000 
C      48.89900000      32.76500000      29.43600000 
H      44.88200000      31.61400000      29.24100000 
H      47.58600000      30.52500000      28.95400000 
H      47.13000000      32.86200000      28.28500000 
H      46.94000000      34.65400000      29.91400000 
H      45.59700000      33.56700000      30.17700000 
H      46.97900000      33.52900000      31.25200000 
H      49.21700000      33.76900000      29.17000000 
H      49.23200000      32.60000000      30.47700000 
H      49.42600000      32.06900000      28.81700000 
N      46.14500000      33.42900000      36.75800000 
C      44.73900000      33.58900000      36.51100000 
C      43.97200000      32.29400000      36.32600000 
O      42.76400000      32.27200000      36.62600000 
C      44.49300000      34.51500000      35.29400000 
O      45.12500000      33.85400000      34.18700000 
C      45.01200000      35.91600000      35.49700000 
H      46.76200000      33.48500000      35.95000000 
H      44.29600000      34.06100000      37.37400000 
H      43.41300000      34.54900000      35.13300000 
H      45.04000000      34.32800000      33.36900000 
H      44.78600000      36.51900000      34.61800000 
H      44.55900000      36.39000000      36.35100000 
H      46.09500000      35.92100000      35.62800000 
N      40.60600000      32.89800000      33.69800000 
C      41.61100000      33.23300000      32.70500000 
C      41.05200000      34.05800000      31.53700000 
O      39.86800000      34.24800000      31.39000000 
C      42.09200000      31.84500000      32.23700000 
C      40.79000000      31.03000000      32.26300000 
C      40.07600000      31.51700000      33.52700000 
H      42.42700000      33.79100000      33.16200000 
H      42.54800000      31.87100000      31.23800000 
H      42.80700000      31.46100000      32.92100000 
H      40.19500000      31.21700000      31.37600000 
H      40.97900000      29.96000000      32.31600000 
H      39.00200000      31.53500000      33.38700000 
H      40.31800000      30.92100000      34.36100000 
N      41.96500000      34.50100000      30.66800000 
C      41.64800000      35.08400000      29.38200000 
C      41.34100000      33.96800000      28.36200000 
O      41.50700000      32.78700000      28.62900000 
C      42.75800000      35.99400000      28.88000000 
O      43.87600000      35.09600000      28.71900000 
C      43.09200000      37.13500000      29.82900000 
H      42.93900000      34.25500000      30.78800000 
H      40.73900000      35.67400000      29.49700000 
H      42.48900000      36.39100000      27.92400000 
H      44.69900000      35.56100000      28.41300000 
H      43.89100000      37.74600000      29.39800000 
H      42.22500000      37.76700000      29.96800000 
H      43.41800000      36.77200000      30.79200000 
N      40.88400000      34.39100000      27.17200000 
C      40.40100000      33.47800000      26.14600000 
C      40.93700000      33.85400000      24.77100000 
O      40.35800000      33.52100000      23.71900000 
C      38.89000000      33.22800000      26.18300000 
C      37.88200000      34.40900000      26.28100000 
C      37.86000000      35.13200000      27.62100000 
C      38.02300000      35.42300000      25.11900000 
H      40.67800000      35.35500000      27.04700000 
H      40.88400000      32.52000000      26.33900000 
H      38.63600000      32.62500000      25.32700000 
H      38.71400000      32.59900000      27.06500000 
H      36.92900000      33.93900000      26.16800000 
H      36.94100000      35.67700000      27.74600000 
H      37.94100000      34.42500000      28.45900000 
H      38.67600000      35.84700000      27.73600000 
H      37.22600000      36.15600000      25.19100000 
H      38.96400000      35.95800000      25.16300000 
H      37.95100000      34.93600000      24.15800000 
N      42.12700000      34.50000000      24.72100000 
C      42.77300000      34.96000000      23.52100000 
C      43.07600000      33.83600000      22.51900000 
O      43.71900000      32.83900000      22.91600000 
C      44.11700000      35.59900000      23.96600000 
C      44.99500000      36.18000000      22.84800000 
C      44.39200000      37.42300000      22.21000000 
C      46.39400000      36.44800000      23.40900000 
H      42.56400000      34.69300000      25.59300000 
H      42.13500000      35.70300000      23.03300000 
H      43.88900000      36.38200000      24.67400000 
H      44.65600000      34.82400000      24.49300000 
H      45.11400000      35.41500000      22.06700000 
H      45.02500000      37.81600000      21.44100000 
H      43.41100000      37.21600000      21.76200000 
H      44.24200000      38.19500000      22.96600000 
H      47.04600000      36.84800000      22.64800000 
H      46.34300000      37.18300000      24.22000000 
H      46.84700000      35.55400000      23.80600000 
H      42.68836280      29.12825812      26.44658562 
H      47.73830264      30.32357888      31.38523930 
H      46.42561986      34.07055415      37.32338550 
H      44.43755016      31.48357940      35.97035762 
H      40.84446602      33.24206318      34.49471481 
H      42.76087226      33.91117200      21.57293252 
