403
Properties=species:S:1:pos:R:3 pbc="F F F"
N      19.18000000      39.34900000      28.15000000 
C      18.46900000      38.79100000      29.31600000 
C      18.73600000      40.04600000      30.17600000 
O      17.63900000      40.58200000      30.78100000 
C      18.91800000      37.24700000      30.02700000 
O      20.16500000      37.17400000      29.93700000 
H      20.19600000      38.19700000      27.83900000 
H      17.41700000      38.76400000      29.07300000 
H      18.57100000      37.79100000      31.18600000 
H      18.40100000      36.97700000      29.79500000 
H      20.89400000      37.84300000      29.97100000 
N      19.87900000      40.61700000      30.55600000 
C      20.14000000      41.73600000      31.27000000 
C      19.40900000      42.88100000      30.67400000 
O      18.73700000      43.66200000      31.41300000 
C      21.74000000      42.00000000      31.26100000 
C      22.11700000      43.32600000      32.05900000 
C      22.90100000      43.19400000      33.28700000 
C      22.45400000      44.35600000      30.94400000 
H      20.86400000      40.03600000      29.84500000 
H      19.71900000      41.50200000      32.08200000 
H      22.07700000      41.15200000      31.91900000 
H      22.00700000      41.85500000      30.54700000 
H      20.93900000      43.70700000      32.46600000 
H      23.09800000      43.96500000      33.48000000 
H      22.67100000      42.64700000      33.78800000 
H      24.02600000      42.75800000      32.59100000 
H      22.57100000      45.15400000      31.36200000 
H      23.33700000      43.86000000      30.51300000 
H      21.60900000      44.44800000      30.11400000 
N      15.57900000      42.89200000      31.35400000 
C      15.20100000      42.76200000      32.59100000 
C      15.46500000      44.78500000      33.11800000 
O      14.70600000      44.87500000      33.53900000 
C      16.29700000      42.22100000      33.71100000 
H      16.53400000      42.01900000      30.93900000 
H      14.28500000      42.77700000      32.73100000 
H      15.86300000      42.23500000      34.41500000 
H      15.90100000      41.01500000      33.22200000 
H      17.11700000      42.30600000      33.37800000 
N      12.74800000      46.42000000      31.82100000 
C      11.11800000      46.33700000      32.51500000 
C      11.45600000      47.24400000      34.00600000 
O      10.78400000      47.69600000      34.17300000 
C      11.29300000      44.63600000      33.04600000 
C      10.11700000      44.61000000      34.18100000 
C      10.96100000      43.90000000      31.73500000 
H      13.13700000      45.57100000      31.53300000 
H      10.61700000      46.54200000      32.22800000 
H      12.23600000      44.41400000      33.41700000 
H      10.05900000      43.63800000      34.28200000 
H      10.43000000      45.04200000      34.92800000 
H       9.23500000      45.00400000      33.72200000 
H      10.78000000      42.97500000      32.01900000 
H       9.91000000      44.30600000      31.38000000 
H      11.62300000      44.01600000      31.05900000 
N      12.67700000      47.14800000      34.52200000 
C      13.03200000      47.84500000      35.71300000 
C      12.80500000      49.39400000      35.26300000 
O      12.26700000      49.94600000      36.00700000 
C      14.41400000      47.47400000      36.14000000 
C      14.81900000      48.37900000      37.30100000 
C      14.63500000      48.39700000      38.55000000 
C      15.50800000      49.71000000      37.04100000 
N      15.24600000      49.34800000      38.91200000 
C      15.85700000      50.18500000      38.41900000 
C      16.20300000      50.20400000      35.83500000 
C      16.55500000      51.38700000      38.42700000 
C      16.68200000      51.52000000      36.24500000 
C      17.01400000      51.94700000      37.29600000 
H      13.60200000      46.33600000      34.11500000 
H      12.25500000      47.61500000      36.43500000 
H      14.45500000      46.58700000      36.51000000 
H      15.09900000      47.62200000      35.27900000 
H      14.12900000      47.58400000      39.14000000 
H      15.28800000      49.65500000      40.28900000 
H      15.91900000      49.90900000      34.88000000 
H      16.72500000      51.87800000      39.39800000 
H      17.27900000      52.09400000      34.97500000 
H      17.65200000      53.08500000      37.35600000 
N      12.09200000      46.61400000      47.03100000 
C      11.46600000      45.61600000      46.99800000 
C      11.24400000      45.88700000      44.74900000 
O      11.55700000      44.73000000      44.62200000 
H      11.20400000      47.78400000      47.73700000 
H      11.73100000      44.89600000      46.95700000 
H      10.21500000      45.73200000      46.93000000 
N      11.24200000      46.50800000      44.60400000 
C      11.06200000      46.75400000      43.10000000 
C      12.70100000      46.84000000      42.73300000 
O      12.74800000      45.87100000      41.58300000 
C      10.94100000      48.28900000      42.39800000 
C       9.31500000      48.57900000      42.62900000 
C       8.98000000      49.89400000      42.71200000 
C       8.71800000      47.65000000      41.62600000 
H      10.81900000      47.76900000      45.11900000 
H      10.59000000      46.21500000      42.68700000 
H      11.30100000      49.02500000      43.25000000 
H      10.96000000      48.39500000      41.70500000 
H       8.93700000      48.16900000      43.78500000 
H       7.92100000      50.29600000      42.75100000 
H       9.52900000      50.59800000      43.46000000 
H       9.37100000      50.50300000      41.63300000 
H       7.39800000      47.96500000      41.71200000 
H       8.78200000      48.20000000      40.76800000 
H       8.62700000      46.92800000      41.71700000 
N      13.52900000      46.95300000      43.27900000 
C      14.94900000      46.96000000      42.94200000 
C      15.18900000      45.35000000      43.04700000 
O      15.84000000      44.67000000      42.03500000 
C      15.89300000      47.53100000      43.86800000 
C      17.02500000      48.54200000      43.13700000 
C      17.31900000      49.38200000      44.16400000 
C      17.58700000      47.54600000      42.20300000 
H      13.36600000      47.69500000      44.06400000 
H      15.16900000      47.10300000      41.89600000 
H      15.37000000      48.13100000      44.55000000 
H      16.47700000      46.86300000      44.46700000 
H      16.35200000      49.02600000      42.53100000 
H      18.34200000      49.97000000      43.66100000 
H      17.10100000      49.89100000      44.66500000 
H      18.28000000      48.63200000      44.83800000 
H      18.58500000      48.33000000      41.70800000 
H      18.48400000      46.98000000      43.00100000 
H      17.42700000      47.12500000      41.63900000 
N      14.72100000      44.54300000      44.17500000 
C      15.09600000      43.42600000      44.42800000 
C      13.96600000      42.45700000      42.98400000 
O      14.82100000      41.63200000      42.78600000 
C      14.53700000      42.95400000      45.87000000 
C      15.54800000      43.36000000      46.67200000 
C      14.23300000      41.46900000      45.84700000 
C      14.90500000      43.31400000      48.01400000 
H      14.46900000      45.26800000      44.79700000 
H      16.04200000      43.00100000      44.20800000 
H      13.56200000      43.41500000      45.82300000 
H      16.28800000      42.85400000      46.72500000 
H      15.79000000      44.43400000      46.46700000 
H      14.08900000      41.13200000      46.79600000 
H      13.51600000      41.02300000      45.12500000 
H      15.29800000      40.82200000      45.55900000 
H      15.74500000      43.78100000      48.95000000 
H      14.07200000      44.03800000      48.16600000 
H      14.58000000      42.41600000      48.45100000 
N      13.36400000      42.90300000      43.04000000 
C      12.20200000      42.16300000      42.11000000 
C      12.97800000      42.39500000      40.50200000 
O      12.97800000      41.22600000      39.87300000 
C      10.89900000      42.93100000      41.96700000 
C       9.55300000      41.61000000      41.52800000 
C       9.78700000      41.69400000      40.33800000 
C       9.22000000      41.30000000      42.04600000 
C       8.80600000      40.64700000      39.42900000 
C       8.12100000      40.19200000      42.21800000 
C       7.87100000      39.73200000      40.77300000 
H      12.62100000      43.68700000      43.44600000 
H      12.22800000      41.24400000      42.24400000 
H      10.63500000      43.08000000      43.01000000 
H      10.83700000      43.79700000      41.23200000 
H      10.23700000      42.02200000      39.42400000 
H       9.22300000      41.36300000      43.55000000 
H       8.60200000      40.39100000      38.78200000 
H       7.55700000      39.72900000      42.68300000 
H       7.33500000      39.25000000      40.36200000 
N      13.30800000      43.66000000      40.54500000 
C      14.04100000      43.56700000      38.89800000 
C      15.39900000      42.74200000      38.97300000 
O      15.53200000      42.02600000      37.82500000 
H      13.35400000      44.18200000      40.82600000 
H      13.38700000      43.34100000      38.18400000 
H      14.39000000      44.70000000      38.88500000 
N      15.85000000      42.68900000      40.04700000 
C      17.07000000      41.68300000      39.96800000 
C      16.78200000      40.42500000      39.85600000 
O      17.30700000      39.50200000      38.92400000 
C      17.99000000      41.57000000      41.41900000 
H      15.82300000      43.15800000      40.69700000 
H      17.90200000      41.94500000      39.12000000 
H      18.67300000      41.20300000      41.33800000 
H      18.35500000      43.05700000      41.42500000 
H      17.26000000      41.77500000      42.06500000 
N      15.59600000      39.85200000      40.57200000 
C      15.15700000      38.42600000      40.25400000 
C      14.75300000      38.39800000      39.07600000 
O      14.99000000      37.18600000      38.25800000 
C      14.13500000      38.46900000      41.35700000 
H      15.20400000      40.62400000      41.11400000 
H      15.77300000      37.93200000      40.52700000 
H      13.52500000      37.26400000      41.17000000 
H      14.21400000      38.47600000      42.22900000 
H      13.06100000      39.16200000      41.10400000 
N      14.19300000      39.17100000      38.25700000 
C      13.35200000      38.95800000      36.87300000 
C      15.06000000      38.95700000      36.14200000 
O      14.79200000      38.18900000      35.25900000 
C      12.91200000      40.49800000      36.65300000 
C      12.59900000      40.37100000      35.04100000 
C      11.48500000      40.60400000      37.08400000 
H      13.69900000      40.28100000      38.93300000 
H      13.09300000      38.38500000      36.78400000 
H      13.30200000      41.15800000      36.83200000 
H      12.13600000      41.37900000      34.70400000 
H      13.80500000      40.67000000      34.48600000 
H      12.33800000      39.72100000      34.56100000 
H      10.93800000      41.18700000      36.91800000 
H      10.88200000      39.46700000      36.70000000 
H      11.52900000      40.21300000      38.20800000 
N      15.83200000      39.55400000      36.19200000 
C      16.96200000      39.62500000      35.68500000 
C      17.72100000      37.88200000      35.51200000 
O      18.12100000      37.67600000      34.85800000 
C      18.06300000      40.69100000      35.97200000 
O      19.03500000      40.01100000      37.19500000 
H      15.85000000      40.43900000      37.11500000 
H      16.83800000      39.58600000      34.37400000 
H      18.88300000      40.60700000      35.00700000 
H      17.74800000      41.33800000      36.00000000 
H      18.41500000      39.99400000      37.64400000 
N      17.46100000      37.60700000      36.65600000 
C      18.14900000      36.14000000      36.97000000 
C      17.01900000      35.25900000      36.38300000 
O      17.70100000      34.17000000      35.44700000 
C      17.92300000      35.78900000      38.40100000 
C      18.39300000      34.19600000      38.61900000 
C      19.07500000      36.51000000      39.25200000 
H      17.00400000      38.02900000      37.72400000 
H      18.95600000      36.02800000      36.62600000 
H      17.05400000      35.92300000      38.82900000 
H      18.65200000      34.07500000      39.66600000 
H      17.72900000      33.70500000      38.16600000 
H      19.48000000      34.15700000      38.06800000 
H      19.00900000      36.45500000      40.20800000 
H      20.05000000      36.46600000      38.88000000 
H      18.72100000      37.85100000      39.06100000 
N      15.81200000      35.36900000      36.24500000 
C      15.07100000      34.33300000      35.66300000 
C      15.24000000      34.50300000      34.07700000 
O      15.36300000      33.77900000      33.41200000 
C      13.74300000      35.11800000      35.90000000 
C      12.74700000      34.60600000      37.05500000 
C      11.76400000      35.20700000      37.68600000 
C      13.10200000      33.13400000      38.01200000 
H      15.48500000      36.13400000      36.86000000 
H      15.03400000      33.59700000      35.73000000 
H      13.31600000      35.95000000      35.52700000 
H      12.78400000      34.19300000      35.05900000 
H      13.80200000      35.38300000      37.91400000 
H      11.31700000      35.04100000      38.25500000 
H      11.50500000      36.20300000      37.04400000 
H      10.90400000      34.42200000      36.58700000 
H      12.88800000      33.14200000      38.42000000 
H      12.61400000      32.56500000      36.91300000 
H      14.28100000      32.88000000      37.65500000 
N      15.56100000      35.52300000      33.26700000 
C      15.51500000      35.97300000      32.28400000 
C      17.39800000      35.19400000      31.66600000 
O      17.15900000      34.90800000      31.02000000 
C      15.48000000      37.60300000      31.99000000 
C      14.39400000      37.92300000      31.55100000 
C      13.01400000      37.50300000      32.22800000 
C      14.36400000      39.44100000      31.16900000 
H      15.24100000      36.90800000      34.40600000 
H      15.07900000      35.54900000      31.60800000 
H      15.96900000      38.05200000      32.64800000 
H      16.46300000      37.72800000      30.90600000 
H      14.13500000      37.49300000      30.37400000 
H      12.26500000      37.74800000      31.97200000 
H      13.10700000      36.32900000      32.32900000 
H      13.37800000      37.80400000      33.33200000 
H      13.34300000      39.81800000      30.83600000 
H      14.26100000      39.82400000      32.27000000 
H      14.93700000      39.80600000      30.81400000 
N      17.90200000      35.61700000      32.65400000 
C      19.23300000      34.95400000      32.31600000 
C      19.18900000      33.46900000      32.34700000 
O      19.78100000      32.81400000      31.22400000 
C      20.42600000      35.18900000      33.50800000 
C      20.91300000      36.52900000      33.70800000 
C      21.90600000      36.68800000      34.87300000 
O      22.35600000      36.15600000      35.21400000 
N      20.98400000      37.56400000      35.83900000 
H      17.98500000      36.11200000      33.59900000 
H      19.79600000      35.30500000      31.58800000 
H      19.74100000      34.84100000      34.57600000 
H      21.04000000      34.43300000      33.56200000 
H      21.49300000      36.64900000      32.94800000 
H      20.03900000      37.24500000      33.46600000 
H      20.20600000      38.05700000      35.61000000 
H      21.43800000      37.78100000      36.66100000 
N      18.35500000      32.74700000      33.03300000 
C      18.09400000      31.25200000      33.20000000 
C      17.13300000      31.01800000      31.59200000 
O      17.71800000      30.02900000      31.19900000 
C      17.72200000      30.84700000      33.97200000 
C      18.53400000      30.97800000      35.48400000 
C      19.89200000      29.76600000      35.76600000 
O      20.10800000      29.71600000      34.14600000 
O      19.92500000      29.68300000      36.14600000 
H      17.90700000      33.39500000      33.77400000 
H      19.09300000      30.93000000      32.86400000 
H      16.49000000      31.37900000      34.45600000 
H      17.26700000      29.83900000      34.04100000 
H      18.78900000      31.81300000      35.50900000 
H      18.00200000      30.67700000      36.27700000 
N      18.39900000      26.67900000      39.06900000 
C      17.81200000      28.22600000      38.93000000 
C      17.46400000      28.14600000      40.24800000 
O      18.01500000      29.84700000      40.69400000 
C      16.53500000      27.80200000      37.98700000 
C      15.54300000      29.22600000      38.55100000 
C      16.68800000      27.71100000      36.98000000 
H      17.90100000      25.81800000      38.69500000 
H      18.35600000      28.59500000      38.43900000 
H      15.85600000      26.99800000      38.79000000 
H      14.77200000      29.08000000      37.79100000 
H      15.41800000      29.35700000      39.21600000 
H      16.20100000      29.94800000      37.92100000 
H      15.64800000      27.35100000      36.21100000 
H      17.16400000      28.24200000      36.26800000 
H      17.24100000      26.39400000      36.65400000 
N      20.85200000      30.13200000      41.88000000 
C      20.87100000      31.12600000      40.80300000 
C      20.08900000      32.37700000      41.94200000 
O      20.98400000      33.28200000      42.54400000 
C      20.38500000      31.37000000      39.90300000 
C      21.45700000      32.52000000      38.74400000 
N      21.73100000      33.58200000      39.26600000 
C      21.65100000      32.30500000      37.65900000 
C      22.09200000      33.88200000      38.56200000 
N      22.31200000      33.64700000      37.33800000 
H      20.17400000      29.18600000      40.95700000 
H      21.99200000      31.37800000      41.22500000 
H      20.84800000      30.26000000      39.16600000 
H      19.62400000      31.34100000      39.56900000 
H      21.55200000      31.49900000      36.73800000 
H      22.85200000      35.39600000      38.56700000 
H      22.85700000      33.77400000      36.51700000 
N      19.18500000      31.81200000      41.93500000 
C      18.29200000      33.40800000      42.79700000 
C      18.72900000      33.19700000      44.16100000 
O      18.78300000      34.31900000      44.76800000 
C      16.79300000      32.91800000      42.67000000 
C      16.12300000      33.57200000      41.43800000 
C      16.22500000      32.40900000      40.36200000 
C      14.60300000      33.92600000      41.77700000 
H      18.52600000      31.51900000      41.68400000 
H      18.48200000      34.20100000      42.41100000 
H      16.43200000      31.96300000      42.92800000 
H      16.29400000      33.57900000      43.50700000 
H      16.72500000      34.40600000      41.09500000 
H      15.74700000      32.84400000      39.38900000 
H      17.23900000      32.15000000      40.07200000 
H      15.62400000      31.56400000      40.60000000 
H      14.24800000      34.31400000      40.64000000 
H      14.11500000      32.96400000      42.02200000 
H      14.60400000      34.68200000      42.33200000 
N      21.84700000      35.23600000      44.58100000 
C      21.28600000      36.54900000      44.25900000 
C      20.83900000      37.27900000      45.58800000 
O      21.25500000      38.25900000      46.17600000 
C      20.41400000      36.97800000      43.23000000 
O      20.88100000      36.44500000      42.02200000 
H      21.29400000      34.62700000      43.85800000 
H      22.25700000      37.35700000      44.07900000 
H      19.47600000      36.15900000      43.43900000 
H      20.00900000      37.96500000      43.13600000 
H      20.78700000      35.63500000      41.62900000 
N      21.89100000      40.17200000      48.23800000 
C      20.98000000      41.26700000      48.52300000 
C      21.25200000      41.49300000      50.39100000 
O      21.04500000      42.47900000      50.63400000 
C      19.53700000      40.90700000      48.67100000 
C      19.07300000      40.52400000      47.08400000 
C      19.84700000      41.34900000      45.85800000 
C      18.15100000      40.03500000      46.60900000 
C      19.58200000      41.13000000      44.72200000 
C      17.63300000      39.71300000      45.68400000 
C      18.40300000      40.24400000      44.36700000 
H      21.36600000      39.36000000      47.81000000 
H      21.31600000      42.20500000      48.25700000 
H      19.25000000      39.98000000      48.98800000 
H      18.91400000      41.79400000      48.89900000 
H      20.60200000      41.76700000      46.13300000 
H      17.54400000      39.55400000      47.58100000 
H      19.87900000      41.35600000      43.98200000 
H      16.80200000      39.01700000      45.33300000 
H      18.02400000      39.98300000      43.45600000 
H      18.59338972      39.49961861      27.48426551 
H      19.44548315      43.03839853      29.68713898 
H      14.87231763      42.77211526      30.80973198 
H      16.29767674      45.26778491      32.84676544 
H      12.73782743      46.94846678      31.09256374 
H      13.15529929      49.71557419      34.38329525 
H      12.84536983      46.48054922      47.50494598 
H      16.39923051      31.65324425      31.35107038 
H      19.19726776      26.62243991      38.65721178 
H      17.05331261      27.30774934      40.60670838 
H      21.69538463      29.95147955      42.13712785 
H      18.93327715      32.27265378      44.48326529 
H      22.73733433      35.24941254      44.45013794 
H      20.06442295      36.92871174      46.11461991 
H      22.52333177      40.44972683      47.66091738 
H      21.54688693      40.71850683      50.95064455 
