69
Properties=species:S:1:pos:R:3 pbc="F F F"
N      20.52800000      31.60100000      24.96100000 
C      19.68700000      32.39200000      25.83300000 
C      20.43500000      32.89400000      27.06900000 
O      21.34100000      32.24100000      27.61600000 
C      18.48400000      31.56100000      26.31500000 
C      17.49500000      31.21700000      25.19900000 
C      16.24100000      30.57400000      25.79300000 
N      15.37600000      30.08200000      24.71600000 
C      14.32000000      29.29500000      24.88100000 
N      13.89900000      28.97700000      26.10200000 
N      13.67600000      28.81000000      23.82500000 
H      20.47500000      30.60900000      25.04000000 
H      19.33000000      33.24900000      25.28100000 
H      18.85000000      30.64800000      26.77400000 
H      17.97400000      32.12200000      27.08800000 
H      17.21900000      32.11400000      24.65700000 
H      17.94900000      30.53300000      24.49300000 
H      16.53000000      29.74100000      26.42300000 
H      15.70500000      31.29100000      26.40000000 
H      15.67300000      30.25600000      23.78100000 
H      14.35400000      29.30300000      26.92200000 
H      13.08900000      28.41500000      26.22900000 
H      13.97100000      29.06400000      22.91000000 
H      13.06400000      28.00500000      23.89300000 
N      19.97200000      34.04600000      27.55600000 
C      20.34800000      34.60300000      28.83500000 
C      20.07300000      33.61300000      29.96200000 
O      19.10000000      32.84800000      29.94900000 
C      19.57800000      35.92500000      29.06400000 
C      18.05200000      35.82100000      29.18700000 
C      17.26200000      35.48800000      27.92400000 
O      17.82300000      35.65200000      26.79000000 
O      16.07600000      35.09300000      28.08300000 
H      19.27000000      34.55100000      27.04700000 
H      21.40800000      34.82700000      28.83900000 
H      19.96700000      36.37400000      29.97000000 
H      19.83500000      36.58800000      28.24700000 
H      17.76700000      35.11200000      29.95100000 
H      17.68300000      36.78800000      29.52000000 
N      20.94200000      33.63800000      30.98800000 
C      20.80900000      32.79400000      32.15200000 
C      21.48600000      31.43900000      32.04400000 
O      21.44800000      30.67800000      33.02700000 
H      21.70600000      34.27500000      30.96600000 
H      21.23800000      33.29600000      33.00800000 
H      19.76600000      32.61600000      32.36500000 
N      22.09100000      31.13900000      30.89500000 
C      22.78700000      29.89900000      30.62500000 
C      24.14200000      30.24100000      30.00700000 
O      24.34600000      31.35700000      29.50500000 
C      21.98000000      28.99400000      29.65500000 
C      20.60800000      28.62700000      30.17500000 
C      20.43300000      27.60200000      31.10900000 
C      19.47900000      29.30300000      29.73000000 
C      19.17200000      27.27200000      31.58300000 
C      18.20900000      28.98100000      30.19300000 
C      18.06300000      27.96400000      31.12200000 
O      16.83100000      27.60000000      31.62600000 
H      22.10500000      31.81600000      30.16600000 
H      22.93800000      29.38200000      31.56100000 
H      21.88000000      29.52100000      28.71300000 
H      22.55600000      28.09600000      29.46400000 
H      21.28400000      27.05800000      31.47000000 
H      19.58500000      30.09800000      29.02100000 
H      19.04100000      26.48800000      32.30300000 
H      17.34900000      29.51200000      29.83300000 
H      16.09300000      28.07700000      31.25900000 
H      20.32378882      31.78023015      24.10299397 
H      24.87602631      29.56188436      30.00429288 
