600
Properties=species:S:1:pos:R:3 pbc="F F F"
N      14.75800000      12.44900000      26.92400000 
C      16.19400000      12.41900000      26.69000000 
C      16.59100000      11.25000000      25.79700000 
O      17.64000000      11.31100000      25.12900000 
C      16.97000000      12.41600000      28.03500000 
C      17.36000000      11.02900000      28.58700000 
C      17.36000000      10.88400000      30.10900000 
N      18.05200000      11.98000000      30.80600000 
C      18.51000000      11.92000000      32.05200000 
N      18.58000000      10.76800000      32.70700000 
N      18.90600000      13.03500000      32.66300000 
H      14.43600000      12.30600000      27.86000000 
H      16.47200000      13.30600000      26.14300000 
H      17.86800000      12.99900000      27.88700000 
H      16.35800000      12.95800000      28.74400000 
H      16.66400000      10.27600000      28.24100000 
H      18.33400000      10.75900000      28.19500000 
H      16.34300000      10.83700000      30.46500000 
H      17.85400000       9.95200000      30.34000000 
H      18.02100000      12.87900000      30.38100000 
H      18.33700000       9.90300000      32.28800000 
H      18.90400000      10.73700000      33.64600000 
H      18.79400000      13.92400000      32.23600000 
H      19.31100000      13.01200000      33.57000000 
N      16.40300000      12.29700000      22.18800000 
C      17.58500000      13.05700000      21.80600000 
C      18.72400000      12.09600000      21.48000000 
O      19.47100000      12.32900000      20.51400000 
C      18.04100000      14.10500000      22.86200000 
C      16.88700000      14.92100000      23.48400000 
C      19.09100000      15.03800000      22.23600000 
C      16.04900000      15.76800000      22.52300000 
H      16.00800000      12.41200000      23.09400000 
H      17.38000000      13.56800000      20.87800000 
H      18.50600000      13.56500000      23.68000000 
H      16.22700000      14.26300000      24.03100000 
H      17.33900000      15.57300000      24.22500000 
H      19.37400000      15.80500000      22.94700000 
H      19.98800000      14.50800000      21.94500000 
H      18.69900000      15.52900000      21.35500000 
H      15.27900000      16.29500000      23.07700000 
H      16.64600000      16.51000000      22.00500000 
H      15.55300000      15.15600000      21.78100000 
N      18.89200000      10.99300000      22.22000000 
C      19.92800000      10.01500000      21.89800000 
C      19.81800000       9.53500000      20.45800000 
O      20.84800000       9.42800000      19.76200000 
C      19.84400000       8.84300000      22.89400000 
C      20.86500000       7.71300000      22.67700000 
C      22.30900000       8.17200000      22.90600000 
C      20.52800000       6.53300000      23.60000000 
H      18.35900000      10.86900000      23.05500000 
H      20.89400000      10.48700000      21.94900000 
H      19.97900000       9.25300000      23.89100000 
H      18.84300000       8.43500000      22.85000000 
H      20.78300000       7.35800000      21.65300000 
H      22.98900000       7.34300000      22.76000000 
H      22.60300000       8.95900000      22.22300000 
H      22.43800000       8.53900000      23.92000000 
H      21.21800000       5.71200000      23.43800000 
H      20.59600000       6.82700000      24.64300000 
H      19.52300000       6.16800000      23.42000000 
N      18.83100000      11.03000000      17.88700000 
C      19.23000000      12.08300000      16.97100000 
C      20.72100000      12.09600000      16.68700000 
O      21.15200000      12.85900000      15.80500000 
C      18.80100000      13.43800000      17.53500000 
H      18.58000000      11.30400000      18.81100000 
H      18.75200000      11.91500000      16.01700000 
H      19.06500000      14.23200000      16.85400000 
H      17.73200000      13.43900000      17.67300000 
H      19.27400000      13.62100000      18.48800000 
N      21.50700000      11.29400000      17.41000000 
C      22.93000000      11.17100000      17.17500000 
C      23.27400000       9.81200000      16.55800000 
O      24.46700000       9.49500000      16.40800000 
C      23.81700000      11.40500000      18.41400000 
C      23.91600000      12.82800000      19.01300000 
C      24.32400000      13.90300000      17.99800000 
C      22.67600000      13.27300000      19.79300000 
H      21.07500000      10.74300000      18.12500000 
H      23.18600000      11.89700000      16.41900000 
H      23.50800000      10.72000000      19.19700000 
H      24.81400000      11.11400000      18.11700000 
H      24.72800000      12.75100000      19.73500000 
H      24.51700000      14.84200000      18.50700000 
H      25.22600000      13.62700000      17.46200000 
H      23.53800000      14.08300000      17.27400000 
H      22.89900000      14.16900000      20.36400000 
H      21.84800000      13.49700000      19.13600000 
H      22.35200000      12.50700000      20.48500000 
N      22.27600000       9.00300000      16.16700000 
C      22.52400000       7.67100000      15.64000000 
C      22.31800000       7.56500000      14.13800000 
O      22.84000000       6.62800000      13.51700000 
C      21.66700000       6.60700000      16.35400000 
C      21.93700000       6.54400000      17.85600000 
C      23.36500000       6.17700000      18.24000000 
O      24.01300000       5.40600000      17.47100000 
O      23.80300000       6.64700000      19.33200000 
H      21.32900000       9.26300000      16.34400000 
H      23.56300000       7.44100000      15.80400000 
H      20.61800000       6.82100000      16.18200000 
H      21.88800000       5.65000000      15.90300000 
H      21.68500000       7.47800000      18.33400000 
H      21.28400000       5.79000000      18.29000000 
N      23.22600000       9.92300000      11.94600000 
C      24.32900000      10.64200000      11.35000000 
C      25.57700000       9.76100000      11.29700000 
O      25.62900000       8.66100000      11.86100000 
C      24.50700000      12.00200000      12.06400000 
C      24.69400000      11.99800000      13.59400000 
C      26.11100000      11.61500000      14.03800000 
C      24.31800000      13.38200000      14.14100000 
H      23.13200000       9.96400000      12.93200000 
H      24.06800000      10.85500000      10.32300000 
H      25.32700000      12.54400000      11.60600000 
H      23.60500000      12.55500000      11.83400000 
H      24.00800000      11.28500000      14.03700000 
H      26.17900000      11.64000000      15.12000000 
H      26.38800000      10.61900000      13.72100000 
H      26.83900000      12.31000000      13.63900000 
H      24.46600000      13.41500000      15.21100000 
H      24.93800000      14.14800000      13.70000000 
H      23.27800000      13.60800000      13.94200000 
N      29.84100000      13.86500000      13.18700000 
C      29.97400000      14.08900000      14.62500000 
C      31.04500000      15.13100000      14.92600000 
O      30.84500000      15.99300000      15.80200000 
C      30.23300000      12.70800000      15.26900000 
C      30.28200000      12.58600000      16.80600000 
C      31.61000000      13.05200000      17.42200000 
C      29.07300000      13.22700000      17.50100000 
H      29.77200000      12.92200000      12.86800000 
H      29.05600000      14.51200000      15.00500000 
H      29.42300000      12.07500000      14.92200000 
H      31.14700000      12.30200000      14.85100000 
H      30.22000000      11.51600000      16.98900000 
H      31.66000000      12.75600000      18.46500000 
H      32.45500000      12.60200000      16.91300000 
H      31.72400000      14.12800000      17.37400000 
H      29.06600000      12.97200000      18.55500000 
H      29.09100000      14.30800000      17.42300000 
H      28.14200000      12.87400000      17.06800000 
N      29.71700000      18.70200000      14.29600000 
C      28.75800000      19.16400000      15.29100000 
C      29.46600000      19.79000000      16.48500000 
O      29.00200000      20.80500000      17.03200000 
C      27.85700000      17.97900000      15.72000000 
C      26.61700000      18.39900000      16.47900000 
C      25.46100000      18.74800000      15.78100000 
C      26.59300000      18.43600000      17.87100000 
C      24.31400000      19.13500000      16.45800000 
C      25.44600000      18.82900000      18.55100000 
C      24.30200000      19.17900000      17.84600000 
H      29.69900000      17.74200000      14.01800000 
H      28.14500000      19.94800000      14.86800000 
H      27.55700000      17.46300000      14.81700000 
H      28.44400000      17.28300000      16.30400000 
H      25.45800000      18.70300000      14.70700000 
H      27.46700000      18.15500000      18.42700000 
H      23.43600000      19.40600000      15.90600000 
H      25.44300000      18.85900000      19.62300000 
H      23.41500000      19.48100000      18.37000000 
N      30.58500000      19.20000000      16.92300000 
C      31.32400000      19.70500000      18.07000000 
C      31.84700000      21.11600000      17.84100000 
O      31.87700000      21.92100000      18.78700000 
C      32.51000000      18.77900000      18.39800000 
C      32.12000000      17.40100000      18.95000000 
C      31.36700000      17.46900000      20.28600000 
C      31.49000000      16.20800000      21.13000000 
N      30.76900000      15.01900000      20.55100000 
H      30.91000000      18.37300000      16.47000000 
H      30.66300000      19.78500000      18.91800000 
H      33.10700000      18.65500000      17.50200000 
H      33.12900000      19.28400000      19.13000000 
H      31.54400000      16.85200000      18.21500000 
H      33.04500000      16.84900000      19.09200000 
H      31.78600000      18.26800000      20.89000000 
H      30.32000000      17.71400000      20.13000000 
H      32.51500000      15.91600000      21.24000000 
H      31.07900000      16.35600000      22.11300000 
H      31.02000000      14.20800000      21.11100000 
H      29.77100000      15.13500000      20.57400000 
H      31.03800000      14.83800000      19.60000000 
N      28.66000000      23.87300000      17.82300000 
C      27.93600000      24.08600000      19.08000000 
C      28.35200000      25.39400000      19.74100000 
O      27.49700000      26.14700000      20.23600000 
C      28.19200000      22.84300000      19.96700000 
C      27.39400000      22.67100000      21.27900000 
C      27.83000000      23.60100000      22.42200000 
C      25.87500000      22.72500000      21.06500000 
H      29.02800000      22.95800000      17.65200000 
H      26.88200000      24.19000000      18.87200000 
H      27.96600000      21.98600000      19.34200000 
H      29.25400000      22.79500000      20.18900000 
H      27.63400000      21.65800000      21.59700000 
H      27.38200000      23.27200000      23.35400000 
H      28.90700000      23.58900000      22.54900000 
H      27.51800000      24.62300000      22.25400000 
H      25.35900000      22.42900000      21.97200000 
H      25.54300000      23.72500000      20.81100000 
H      25.56600000      22.05300000      20.27200000 
N      25.14100000      29.30400000      30.00200000 
C      26.47300000      29.49900000      29.47800000 
C      26.87300000      28.46800000      28.43700000 
O      26.06700000      27.66500000      27.95000000 
H      24.95400000      28.45200000      30.48100000 
H      26.52700000      30.48100000      29.03400000 
H      27.19800000      29.46400000      30.28200000 
N      28.17500000      28.49600000      28.10100000 
C      28.81500000      27.51200000      27.25700000 
C      29.56000000      26.49400000      28.11200000 
O      30.01000000      26.77500000      29.23300000 
C      29.79700000      28.16400000      26.26500000 
C      29.07200000      28.89500000      25.13700000 
C      30.02100000      29.48400000      24.09400000 
N      30.87500000      30.56300000      24.60900000 
C      30.53400000      31.84000000      24.72400000 
N      29.32400000      32.26500000      24.37800000 
N      31.42000000      32.71800000      25.18900000 
H      28.77100000      29.14000000      28.57200000 
H      28.04100000      26.99600000      26.70900000 
H      30.44800000      28.83900000      26.81200000 
H      30.42500000      27.38900000      25.83900000 
H      28.42600000      28.19300000      24.61900000 
H      28.43400000      29.67000000      25.54300000 
H      30.69200000      28.72000000      23.73200000 
H      29.47000000      29.84200000      23.23600000 
H      31.79600000      30.30900000      24.88800000 
H      28.62500000      31.65300000      24.02900000 
H      29.08100000      33.22600000      24.45300000 
H      32.33900000      32.43900000      25.44500000 
H      31.18900000      33.68000000      25.28900000 
N      29.71800000      25.29000000      27.55100000 
C      30.40100000      24.18300000      28.19500000 
C      31.89700000      24.26500000      27.88400000 
O      32.27100000      24.54100000      26.72700000 
C      29.80000000      22.84600000      27.68000000 
C      28.30200000      22.76300000      28.02700000 
C      30.57000000      21.64400000      28.23300000 
C      27.58900000      21.54300000      27.43300000 
H      29.36500000      25.13700000      26.63500000 
H      30.23100000      24.26900000      29.25500000 
H      29.90000000      22.85300000      26.59900000 
H      28.19300000      22.75500000      29.10800000 
H      27.80000000      23.65500000      27.67200000 
H      30.18100000      20.72500000      27.82200000 
H      31.62300000      21.68300000      27.99900000 
H      30.47000000      21.59900000      29.30900000 
H      26.52400000      21.60500000      27.62300000 
H      27.73000000      21.49300000      26.35800000 
H      27.94200000      20.61300000      27.86000000 
N      32.79600000      24.01200000      28.84500000 
C      34.22700000      24.09100000      28.54700000 
C      34.64900000      23.07700000      27.49500000 
O      34.13800000      21.95000000      27.40100000 
C      34.90800000      23.82200000      29.91200000 
C      33.84000000      23.09100000      30.73200000 
C      32.53500000      23.73300000      30.27300000 
H      34.46900000      25.07700000      28.18000000 
H      35.82200000      23.25400000      29.80900000 
H      35.15400000      24.76900000      30.37300000 
H      33.83300000      22.03400000      30.49400000 
H      33.99200000      23.19700000      31.79700000 
H      31.69200000      23.07800000      30.40200000 
H      32.33900000      24.66000000      30.79900000 
N      36.45700000      18.97200000      27.87500000 
C      35.60200000      17.80300000      27.90100000 
C      34.91100000      17.60800000      26.55900000 
O      34.90800000      16.47400000      26.03900000 
C      34.58400000      17.89000000      29.04000000 
H      36.11200000      19.82700000      28.24900000 
H      36.21600000      16.92800000      28.03200000 
H      33.93900000      17.02100000      29.03100000 
H      35.10600000      17.91700000      29.98700000 
H      33.97000000      18.77800000      28.95400000 
N      34.30000000      18.63800000      25.97000000 
C      33.50400000      18.45700000      24.76200000 
C      34.24800000      17.72800000      23.66300000 
O      33.62900000      16.89900000      22.97900000 
C      33.02200000      19.79300000      24.16800000 
C      31.85400000      20.49000000      24.88200000 
C      31.56300000      21.80500000      24.14300000 
C      30.59700000      19.61200000      24.93700000 
H      34.34900000      19.54500000      26.37800000 
H      32.66200000      17.82200000      24.98800000 
H      33.87000000      20.46500000      24.10800000 
H      32.70700000      19.59400000      23.14800000 
H      32.15400000      20.73000000      25.89600000 
H      30.74000000      22.33700000      24.60300000 
H      32.42800000      22.45800000      24.14900000 
H      31.29600000      21.60800000      23.10900000 
H      29.76500000      20.17000000      25.35000000 
H      30.31500000      19.28200000      23.94100000 
H      30.73700000      18.73400000      25.55700000 
N      36.38600000      15.41300000      23.65600000 
C      36.52800000      14.00000000      23.92800000 
C      35.19800000      13.26800000      24.08200000 
O      35.14700000      12.05100000      23.83900000 
C      37.35700000      13.76500000      25.18900000 
O      38.68200000      14.23600000      24.92300000 
H      36.28700000      16.03200000      24.43100000 
H      37.03000000      13.53600000      23.09500000 
H      36.92400000      14.29700000      26.02600000 
H      37.37000000      12.70900000      25.41400000 
H      39.23000000      14.24700000      25.70200000 
N      34.14100000      13.94800000      24.53300000 
C      32.86600000      13.30400000      24.80000000 
C      32.26500000      12.74200000      23.51000000 
O      32.16900000      13.44900000      22.48600000 
C      31.88400000      14.31600000      25.42100000 
C      32.26400000      14.86500000      26.79700000 
S      32.69200000      13.57200000      28.11500000 
C      31.56100000      14.09500000      29.51700000 
H      34.22700000      14.92400000      24.71300000 
H      33.02200000      12.48100000      25.48300000 
H      31.80000000      15.16500000      24.75000000 
H      30.90700000      13.86400000      25.46900000 
H      33.11700000      15.50900000      26.73300000 
H      31.43100000      15.43000000      27.19100000 
H      31.67800000      13.36400000      30.30100000 
H      31.85100000      15.07000000      29.87500000 
H      30.54000000      14.10700000      29.17100000 
N      31.83700000      11.48400000      23.55600000 
C      31.21000000      10.83000000      22.42600000 
C      29.74700000      11.22700000      22.33000000 
O      29.22600000      12.01900000      23.13400000 
C      31.40600000       9.31400000      22.54300000 
C      32.77200000       8.85200000      22.04300000 
O      33.34400000       9.54500000      21.15300000 
O      33.20700000       7.76900000      22.52700000 
H      31.87200000      10.97600000      24.42300000 
H      31.69400000      11.16100000      21.51900000 
H      31.27300000       8.99700000      23.56800000 
H      30.66500000       8.78500000      21.95600000 
N      29.01600000      10.67800000      21.35200000 
C      27.59600000      10.95900000      21.20500000 
C      26.83600000      10.63700000      22.48200000 
O      25.89800000      11.36300000      22.85500000 
C      27.03100000      10.14100000      20.04100000 
H      29.44900000      10.09600000      20.67100000 
H      27.44400000      12.01300000      21.02700000 
H      25.96200000      10.27600000      19.97800000 
H      27.47300000      10.46900000      19.10900000 
H      27.23800000       9.08700000      20.17600000 
N      27.18200000       9.53600000      23.16000000 
C      26.46800000       9.11600000      24.35400000 
C      26.68900000      10.12200000      25.47600000 
O      25.75600000      10.48700000      26.21800000 
C      26.93900000       7.73000000      24.84200000 
C      27.04600000       6.62800000      23.77100000 
C      27.42100000       5.30900000      24.45900000 
C      25.77200000       6.46800000      22.93900000 
H      27.93200000       8.97700000      22.82400000 
H      25.40800000       9.10700000      24.15300000 
H      27.90800000       7.83600000      25.31800000 
H      26.24000000       7.41500000      25.61200000 
H      27.86000000       6.88300000      23.09700000 
H      27.58200000       4.52700000      23.72500000 
H      28.33100000       5.41400000      25.04200000 
H      26.62800000       4.98700000      25.12600000 
H      25.89500000       5.67300000      22.21100000 
H      24.92900000       6.21400000      23.57300000 
H      25.52800000       7.37200000      22.39600000 
N      27.93700000      10.55700000      25.63900000 
C      28.34700000      11.47200000      26.68600000 
C      27.79800000      12.86900000      26.44200000 
O      27.46200000      13.58300000      27.40600000 
C      29.87100000      11.54300000      26.71900000 
C      30.56200000      10.20700000      26.93700000 
O      30.13400000       9.45300000      27.84900000 
O      31.55000000       9.96200000      26.17400000 
H      28.62800000      10.26500000      24.98600000 
H      27.96000000      11.13900000      27.63500000 
H      30.21800000      11.95200000      25.78700000 
H      30.17000000      12.21400000      27.51200000 
N      27.70800000      13.28600000      25.17900000 
C      27.08800000      14.55500000      24.83700000 
C      25.66200000      14.56100000      25.35000000 
O      25.24000000      15.55800000      25.95600000 
C      27.16200000      14.78000000      23.31500000 
C      26.45800000      16.04400000      22.78700000 
C      27.08600000      17.34400000      23.30900000 
C      26.48000000      16.02500000      21.25300000 
H      28.08800000      12.73200000      24.43900000 
H      27.58300000      15.35900000      25.36100000 
H      28.21100000      14.81800000      23.04400000 
H      26.73500000      13.91400000      22.82500000 
H      25.41600000      16.02000000      23.09700000 
H      26.59500000      18.20300000      22.86300000 
H      26.99900000      17.43900000      24.38400000 
H      28.13900000      17.38900000      23.04900000 
H      25.90800000      16.85200000      20.85200000 
H      27.49600000      16.11300000      20.88000000 
H      26.05800000      15.10500000      20.86200000 
N      24.87500000      13.49500000      25.15300000 
C      23.50900000      13.52400000      25.65400000 
C      23.46400000      13.67400000      27.16400000 
O      22.61500000      14.42600000      27.67200000 
C      22.65300000      12.31900000      25.22400000 
O      23.03300000      11.09800000      25.87200000 
C      22.58600000      12.15900000      23.71600000 
H      25.20900000      12.72600000      24.61300000 
H      23.01600000      14.40500000      25.26900000 
H      21.66200000      12.52000000      25.60000000 
H      23.94900000      10.82900000      25.77300000 
H      21.87300000      11.38400000      23.48900000 
H      22.25500000      13.07800000      23.24900000 
H      23.54000000      11.87600000      23.29500000 
N      24.31900000      12.97000000      27.90800000 
C      24.29200000      13.03200000      29.36000000 
C      24.61100000      14.43700000      29.84900000 
O      23.98800000      14.92700000      30.80600000 
C      25.28100000      12.01300000      29.94700000 
C      25.17500000      11.91100000      31.46700000 
O      24.04100000      11.61800000      31.94700000 
O      26.22600000      12.11900000      32.13500000 
H      24.95300000      12.34100000      27.46700000 
H      23.30000000      12.80900000      29.71800000 
H      25.04400000      11.04100000      29.52700000 
H      26.29200000      12.26700000      29.66800000 
N      25.60400000      15.09500000      29.23900000 
C      25.99900000      16.41600000      29.68800000 
C      25.03500000      17.49000000      29.19000000 
O      24.69100000      18.41000000      29.96200000 
C      27.46100000      16.71400000      29.30400000 
C      28.09900000      17.71600000      30.26700000 
C      29.53300000      18.07300000      29.87100000 
C      30.31400000      18.78800000      30.96600000 
N      29.56900000      19.99400000      31.49800000 
H      26.11700000      14.65400000      28.50200000 
H      25.91400000      16.44100000      30.76300000 
H      28.01000000      15.78100000      29.35300000 
H      27.52200000      17.06600000      28.27900000 
H      27.49300000      18.61500000      30.30900000 
H      28.09400000      17.28400000      31.26500000 
H      30.08800000      17.17000000      29.63900000 
H      29.52600000      18.67500000      28.96900000 
H      30.49000000      18.14600000      31.81500000 
H      31.26000000      19.15000000      30.59700000 
H      30.18600000      20.58700000      32.03200000 
H      29.18000000      20.55400000      30.75700000 
H      28.81000000      19.72800000      32.10500000 
N      24.58100000      17.41200000      27.94200000 
C      23.65000000      18.37900000      27.35300000 
C      22.39900000      18.48400000      28.21500000 
O      21.94200000      19.59400000      28.53900000 
C      23.35600000      17.89000000      25.91000000 
C      22.61500000      18.78500000      24.89600000 
C      21.19100000      19.18500000      25.30300000 
C      23.45700000      19.99000000      24.45800000 
H      24.88100000      16.65800000      27.35400000 
H      24.09800000      19.36200000      27.35100000 
H      24.31800000      17.66100000      25.47800000 
H      22.83100000      16.94700000      25.98400000 
H      22.51500000      18.14600000      24.02100000 
H      20.66400000      19.60300000      24.45200000 
H      20.63000000      18.32200000      25.64700000 
H      21.18700000      19.92500000      26.09200000 
H      22.91600000      20.59500000      23.73800000 
H      23.71500000      20.62600000      25.29400000 
H      24.38100000      19.66500000      23.99300000 
N      21.80200000      17.34200000      28.58500000 
C      20.50800000      17.33400000      29.25100000 
C      20.59100000      17.67600000      30.73000000 
O      19.55700000      17.98600000      31.34200000 
C      19.80500000      15.97300000      29.01800000 
C      20.40000000      14.87200000      29.90000000 
C      18.28600000      16.07900000      29.19900000 
H      22.18700000      16.46600000      28.29100000 
H      19.90300000      18.11800000      28.81600000 
H      19.99900000      15.72600000      27.98000000 
H      20.02900000      13.90300000      29.59000000 
H      21.47500000      14.83700000      29.83700000 
H      20.12600000      15.02600000      30.93600000 
H      17.81900000      15.14300000      28.92500000 
H      18.02600000      16.30000000      30.22400000 
H      17.87100000      16.85700000      28.56800000 
N      21.78400000      17.62200000      31.34200000 
C      21.96100000      18.08500000      32.70500000 
C      22.25700000      19.58300000      32.74000000 
O      21.69200000      20.32100000      33.56100000 
C      23.05500000      17.26900000      33.38600000 
O      23.17800000      17.77500000      34.71900000 
H      22.57800000      17.30700000      30.83100000 
H      21.04000000      17.94700000      33.24300000 
H      22.76000000      16.22900000      33.39200000 
H      23.99500000      17.36100000      32.85700000 
H      23.80600000      17.28900000      35.24500000 
N      23.14200000      20.04900000      31.84900000 
C      23.56600000      21.43900000      31.82200000 
C      22.45200000      22.37600000      31.36100000 
O      22.22400000      23.41800000      31.99700000 
C      24.81700000      21.53600000      30.92200000 
C      25.48400000      22.89000000      30.92400000 
C      26.55000000      23.15300000      31.78200000 
C      25.06900000      23.88900000      30.04800000 
C      27.18700000      24.38700000      31.76300000 
C      25.69800000      25.12500000      30.03000000 
C      26.76200000      25.37600000      30.88600000 
H      23.57000000      19.42600000      31.19400000 
H      23.81500000      21.75800000      32.82400000 
H      25.51500000      20.79000000      31.27700000 
H      24.54300000      21.25400000      29.91300000 
H      26.89000000      22.38700000      32.45400000 
H      24.26100000      23.69700000      29.36900000 
H      28.01500000      24.57100000      32.42100000 
H      25.37600000      25.87700000      29.33900000 
H      27.26100000      26.32500000      30.86000000 
N      21.78500000      22.04800000      30.24700000 
C      20.68100000      22.83300000      29.73900000 
C      19.35800000      22.26000000      30.23800000 
O      19.24900000      21.08200000      30.59700000 
C      20.66400000      22.84800000      28.19000000 
C      21.86600000      23.52400000      27.56800000 
C      22.86900000      22.77900000      26.95500000 
C      21.98800000      24.91100000      27.56200000 
C      23.95700000      23.39100000      26.34900000 
C      23.07300000      25.53800000      26.96300000 
C      24.05900000      24.77100000      26.36000000 
O      25.15900000      25.33900000      25.74900000 
H      21.96000000      21.17100000      29.79800000 
H      20.78300000      23.84300000      30.10500000 
H      20.59500000      21.82700000      27.83900000 
H      19.76200000      23.35500000      27.87100000 
H      22.79900000      21.71100000      26.96000000 
H      21.23000000      25.51300000      28.02300000 
H      24.72600000      22.81000000      25.87800000 
H      23.14700000      26.60800000      26.95900000 
H      25.30600000      26.25600000      25.97000000 
N      15.57000000      20.70300000      29.91000000 
C      15.06500000      19.70200000      28.97600000 
C      14.16100000      20.30800000      27.90800000 
O      14.30400000      19.98800000      26.71600000 
C      14.36300000      18.59300000      29.77100000 
C      13.77700000      17.48000000      28.89300000 
C      13.41700000      16.28200000      29.75800000 
O      12.50300000      16.43600000      30.62500000 
O      14.08800000      15.22400000      29.57700000 
H      15.28200000      20.64400000      30.85900000 
H      15.89600000      19.28000000      28.43200000 
H      15.11000000      18.17100000      30.43500000 
H      13.58200000      19.01700000      30.39100000 
H      12.88400000      17.82800000      28.38400000 
H      14.49400000      17.16900000      28.14500000 
N      16.35300000      22.43000000      25.80200000 
C      17.28600000      21.57800000      25.09700000 
C      16.69600000      20.95200000      23.85300000 
O      17.42100000      20.76100000      22.85500000 
H      16.23700000      22.24200000      26.77600000 
H      18.16700000      22.12000000      24.79000000 
H      17.58900000      20.79200000      25.77400000 
N      16.85800000      23.83200000      21.33700000 
C      18.23800000      24.12900000      20.99200000 
C      18.80300000      23.08100000      20.05000000 
O      19.54700000      23.41100000      19.11000000 
C      19.07700000      24.19200000      22.28400000 
C      20.53900000      24.63400000      22.09600000 
C      20.64300000      26.11900000      21.72900000 
C      21.32900000      24.33800000      23.37800000 
H      16.62800000      23.71100000      22.30400000 
H      18.28400000      25.06700000      20.45900000 
H      18.58600000      24.87700000      22.96500000 
H      19.05400000      23.21200000      22.74700000 
H      20.98500000      24.05300000      21.29500000 
H      21.67900000      26.40500000      21.59500000 
H      20.11800000      26.35100000      20.80900000 
H      20.22700000      26.73600000      22.51800000 
H      22.36100000      24.65200000      23.27400000 
H      20.90200000      24.86500000      24.22600000 
H      21.32200000      23.27700000      23.60500000 
H      14.43093162      13.25187012      26.68228560 
H      16.00984106      10.43762925      25.74895780 
H      15.72543294      12.49442330      21.62949582 
H      18.92328435       9.30709583      20.07388597 
H      18.11027329      10.60289739      17.55815906 
H      21.76544570       8.24757747      13.65969911 
H      22.44940789      10.24028373      11.62006178 
H      26.38528196      10.06867983      10.79499064 
H      29.09515801      14.27004608      12.88757156 
H      31.90753777      15.12201533      14.42008709 
H      29.60111164      19.16162284      13.53094005 
H      32.16395887      21.39056023      16.93317086 
H      28.11312205      24.04317370      17.12876271 
H      29.31785279      25.65042204      19.77809614 
H      24.95300539      29.95481141      30.59453906 
H      35.36824005      23.30667565      26.83929973 
H      37.20731259      18.80591029      28.34344981 
H      35.21624878      17.91963652      23.50247040 
H      37.11185909      15.70814712      23.21326221 
H      18.54591839      22.84189491      30.28183805 
H      16.46872703      20.66301967      29.93629241 
H      13.45185804      20.96394084      28.16657162 
H      16.62504718      23.28594736      25.74416873 
H      15.73015474      20.69363879      23.83319024 
H      16.32688827      24.50123470      21.05407733 
H      18.57760340      22.11582133      20.18276483 
