 325 
 
N                36.7461061186       28.3929749251       17.6031229968
C                35.3212234734       28.1257333750       17.6427417631
C                34.7731043527       28.2942778497       19.0567808722
O                33.6648377729       28.7808408645       19.2603673512
C                35.0591187659       26.7300307589       17.0757355067
C                33.5956541746       26.2772141672       17.0840704754
C                32.6683655707       27.2803750122       16.4020923127
C                33.5135523962       24.9212187151       16.3859374892
H                37.3652919954       27.5781421612       17.5928101281
H                34.8235092068       28.8878645170       17.0290592403
H                35.4280370565       26.7227824880       16.0475252376
H                35.6584416419       26.0138263486       17.6436259940
H                33.2766171999       26.1629320170       18.1255985201
H                31.6734521255       26.8557194577       16.2969033835
H                32.5845048111       28.1880268338       16.9928226411
H                33.0392024792       27.5315258998       15.4110663542
H                32.5057377549       24.5204323768       16.4432453714
H                33.7817889458       25.0214471059       15.3362882317
H                34.2001087001       24.2173915339       16.8498094194
N                35.5590739733       27.8850799733       20.0574211878
C                35.1511855919       28.1133821710       21.4274872282
C                34.9762723881       29.6071384011       21.6914609524
O                34.0333930217       30.0312269648       22.3493587818
C                36.1603784127       27.5513821608       22.4234472705
C                36.2145669810       26.0290581738       22.3867169690
C                37.3553569892       25.5040143427       23.2596838438
N                37.5894385508       24.1119120154       22.9417586309
C                37.6514889787       23.1052783018       23.8096195289
N                37.7410860784       23.3082934614       25.1173252348
N                37.6396959988       21.8515407565       23.3556130755
H                36.5213362110       27.6228105226       19.8920006510
H                34.1678012031       27.6466301293       21.5713755582
H                37.1460219159       27.9585810782       22.1885136175
H                35.8755215085       27.8878109364       23.4221448441
H                35.2659346124       25.6086967163       22.7231087300
H                36.3776528659       25.7012572703       21.3578911651
H                38.2590647120       26.0959224999       23.0744565430
H                37.1062103988       25.5978593335       24.3160291068
H                37.5507855806       23.9007720650       21.9517729484
H                37.9876619040       24.2087404577       25.5103184968
H                37.7282950330       22.4944264891       25.7159354865
H                37.4523072178       21.6545769785       22.3880330328
H                37.5785516379       21.1061696074       24.0416820929
N                31.6924680200       30.6342016475       20.4671735235
C                30.6375679381       30.1931036407       21.3623231678
C                30.5683410858       31.1192985206       22.5766752008
O                29.4899034647       31.4670027839       23.0677216889
C                30.8534015016       28.7208232490       21.7633898491
C                30.6978160154       27.8332152892       20.5199698330
C                29.8678374268       28.3101107178       22.8557138354
C                30.9599746720       26.3549543845       20.7889091291
H                32.4111990759       29.9727513347       20.1963679087
H                29.6701354954       30.2893717163       20.8489214571
H                31.8763845677       28.6393754048       22.1475257345
H                29.6861909422       27.9510083386       20.1281276146
H                31.3949896801       28.1701605952       19.7522366269
H                30.0707215472       27.2945142174       23.1777275976
H                29.9529322463       28.9651138615       23.7191613152
H                28.8490698107       28.3590582451       22.4797274744
H                30.9694882458       25.8144906821       19.8458142949
H                31.9243022832       26.2202471244       21.2746627893
H                30.1793722228       25.9250274175       21.4092019385
N                22.2368996241       26.0345116163       20.3784359044
C                23.4613870880       25.2873881625       20.2371510931
C                23.1786944454       23.8454746916       19.8184156748
O                24.0065315732       23.2355427799       19.1385423400
C                24.2957074501       25.2987561951       21.5164523511
C                24.9740250567       26.6415659432       21.8161217623
C                25.6515622845       26.5556302520       23.1808106681
C                26.0157363748       27.0203086016       20.7665156443
H                21.9707046153       26.3372494301       21.3106542954
H                24.0434604592       25.7121130480       19.4087524697
H                23.6336730272       25.0303409534       22.3433616636
H                25.0607164391       24.5230552468       21.4244192548
H                24.2018517189       27.4159398998       21.8538393980
H                26.1361631353       27.4985952065       23.4140132994
H                24.9181195142       26.3432232255       23.9538320501
H                26.4006981998       25.7666219725       23.1711217583
H                26.4982535400       27.9514721427       21.0516163948
H                26.7741218800       26.2432667399       20.6926302070
H                25.5713352510       27.1612672486       19.7845315487
N                24.5099931090       22.2814445433       16.6257341572
C                25.1735235647       21.0002658582       16.7770037972
C                24.9200900263       20.0749080984       15.5900521375
O                25.8241658965       19.6957973008       14.8524518954
C                24.6588302827       20.3266577418       18.0469813419
C                24.9848498448       18.8041021930       18.0860721915
O                26.0858190322       18.4422734841       17.6450121088
O                24.1041856737       18.0661608385       18.5860011264
H                24.2459726016       22.7193013231       17.5084164692
H                26.2639764210       21.1448407723       16.8320572255
H                25.1096805784       20.7971619992       18.9223453759
H                23.5771474539       20.4436243007       18.0932886088
N                26.0676817726       21.8417866449       12.2375238816
C                27.4590986183       22.2313745933       12.3416643691
C                28.4014318434       21.0421702219       12.2603393336
O                29.3221054257       21.0301414694       11.4352549478
C                27.7706787290       22.9600424333       13.6517340493
C                27.2900618533       24.4144524240       13.7343983907
C                27.7866045839       24.9899370919       15.0612708395
C                27.8118599304       25.2653902108       12.5786598281
H                25.4220574890       22.2574439001       12.9000545078
H                27.7052551279       22.8753364519       11.4885743744
H                27.3338079184       22.3842503408       14.4716066084
H                28.8569636426       22.9578474123       13.7730794556
H                26.1954919731       24.4239304007       13.7191774971
H                27.4440566393       26.0125508281       15.1932413806
H                27.4358404157       24.3889091781       15.8972928041
H                28.8739958038       24.9908916631       15.0717281234
H                27.6079956036       26.3149492758       12.7720942731
H                28.8863164559       25.1341643406       12.4715077394
H                27.3317028824       25.0013308620       11.6406690617
N                33.4447217084       18.0970123376       16.0542772412
C                32.5964576467       18.2442528247       17.2242370761
C                33.2167121426       19.2239316149       18.2333582761
O                34.4158391884       19.3842996864       18.3459002153
C                32.6219527773       16.8307269870       17.8206188951
C                34.0782773541       16.4158958392       17.6058675455
C                34.4836071087       17.1021338065       16.2931952713
H                31.6078658619       18.5848481802       16.9098933714
H                32.3409514744       16.8129106787       18.8709951210
H                31.9413172935       16.1964850906       17.2526167320
H                34.6935681965       16.7982301759       18.4185318923
H                34.1887284934       15.3370188361       17.5473546105
H                35.4565985389       17.5908185644       16.3827696341
H                34.5113378468       16.4021588244       15.4576636767
N                32.3186733544       19.8022788436       19.0647605985
C                32.7210716103       20.5503645752       20.2331745586
C                32.3515638951       19.8124893401       21.5234111125
O                32.5623646988       20.3143415328       22.6214412889
C                32.2216056802       22.0143816645       20.2617988063
C                30.7892729974       22.1648182566       19.7205190202
C                33.2103500852       22.9298239959       19.5469969696
C                30.6666358553       22.3472928012       18.2083864996
H                31.3348799339       19.7613721678       18.8436773370
H                33.8210297344       20.5631723852       20.2032097926
H                32.1987956498       22.2974167365       21.3184771620
H                30.1898512136       21.3069146733       20.0381436171
H                30.3332199640       23.0399385599       20.1846547225
H                32.8249277001       23.9452489463       19.5224609669
H                34.1609612644       22.9261333985       20.0707254814
H                33.3769193744       22.5917276548       18.5284704010
H                29.6188836951       22.2789947154       17.9185268588
H                31.0323761918       23.3272634020       17.9149443939
H                31.2165740384       21.5988864172       17.6438768991
N                31.9078225065       18.5536707948       21.3581068708
C                31.2899126477       17.7569700926       22.4036216569
C                30.0847227901       18.5361809488       22.9726813444
O                29.7601978166       19.6253454463       22.5343884485
C                32.2966781901       17.4192774278       23.5307678274
O                32.3877910228       18.4387707120       24.4904691862
H                31.7271823081       18.2686184740       20.4065797090
H                30.9349693888       16.8336630672       21.9397061087
H                31.9885264624       16.5142603011       24.0559790283
H                33.2717411394       17.2341832067       23.0623762896
H                32.5447830559       19.2668941382       23.9779911207
N                29.4902763517       17.9315971615       24.0114196571
C                28.4607932435       18.5609595414       24.8061828803
C                29.0275499731       19.1174759455       26.1189123442
O                28.6461867360       20.1934128292       26.5619855788
C                27.2647363439       17.6050024187       25.0154066309
C                26.0248041264       18.4033375713       25.4312165065
C                27.5735765167       16.4845942509       26.0061283052
C                24.7457849470       17.5786052334       25.3460365534
H                29.7577589374       16.9857267375       24.2351319397
H                28.1160087016       19.4293538364       24.2324312598
H                27.0604560026       17.1630517446       24.0337954365
H                26.1541997681       18.7848625295       26.4465210414
H                25.9241173038       19.2661245324       24.7690514992
H                26.7442644656       15.7835548826       26.0270691628
H                28.4616862434       15.9308318606       25.7134034953
H                27.7024492125       16.8858142554       27.0079519441
H                23.8748909150       18.2136214150       25.4956046675
H                24.6546954542       17.1114562799       24.3683436889
H                24.7241759591       16.8009763743       26.1046706091
N                29.9448001160       18.3640393102       26.7383593425
C                30.4793484536       18.7181867776       28.0414704895
C                31.3009537904       20.0032637964       27.9507346230
O                31.2382848401       20.8801057654       28.8011139139
C                31.3914705363       17.6164040807       28.5887613255
C                30.6368810547       16.3502511220       29.0029262156
C                31.6015531755       15.3793198040       29.6828286441
N                30.9064841169       14.1605395010       30.0624495590
C                31.5062325998       13.0787017105       30.5494428635
N                32.8272893241       13.0486337167       30.7079052565
N                30.7893192743       11.9842887878       30.8000667346
H                30.2140741962       17.4695250037       26.3581861930
H                29.6504616618       18.9118480239       28.7334678975
H                32.1487340651       17.3783690145       27.8398136865
H                31.8973555211       18.0236325378       29.4651921622
H                29.8313052744       16.6111965525       29.6915915022
H                30.1897948447       15.8690330008       28.1332152143
H                32.4039065618       15.1224222419       28.9851400719
H                32.0280081766       15.8607433443       30.5697595706
H                29.8968480653       14.1841734007       30.0387401939
H                33.3791681323       13.8896137176       30.6550889487
H                33.2709326618       12.2326029811       31.0964826525
H                29.7849008980       11.9891039672       30.7228859296
H                31.2152448439       11.1725629177       31.2158220161
N                32.1535587111       20.0486762391       26.9203068358
C                33.0550125486       21.1757045204       26.7859867669
C                32.2996092549       22.4298814154       26.3454914977
O                32.6013204526       23.5245440640       26.7986739318
C                34.2519801496       20.8329564288       25.8984714606
C                34.9277050785       19.5491739561       26.3934670511
C                36.4141518621       19.5069623818       26.0944320873
O                37.0528642187       20.4807466676       25.7170954779
N                36.9887453867       18.3165917445       26.2922400194
H                32.1464137715       19.3440223783       26.1889441903
H                33.4212275544       21.4171468150       27.7939404973
H                33.9366539899       20.7319891087       24.8605995650
H                34.9625561793       21.6583620573       25.9555682925
H                34.8302696414       19.4892268713       27.4799629939
H                34.4524832700       18.6742665041       25.9517915408
H                36.4656236641       17.5232508273       26.6215300823
H                37.9837443181       18.2194318644       26.1638870626
N                31.2709319050       22.2582144901       25.5005109692
C                30.3615027243       23.3611963713       25.2450450212
C                29.8221069056       23.8843399668       26.5838867440
O                29.8951665221       25.0628231634       26.8967457287
C                29.1643746109       22.9801366701       24.3748394949
C                29.5042794279       22.9222845278       22.8909130020
S                28.0418752616       23.2456622320       21.8354846697
C                27.1511146707       21.6872970499       22.0590790286
H                31.0838504497       21.3684009051       25.0643777557
H                30.9069738100       24.1906959008       24.7784152586
H                28.7478641237       22.0296824748       24.7126729641
H                28.4006034491       23.7484985865       24.5209610357
H                30.1986977320       23.7170215443       22.6250311564
H                29.9157742518       21.9597397980       22.5956843519
H                26.3744604601       21.6391681485       21.3005890119
H                27.8459860513       20.8633250666       21.9279307619
H                26.6950470136       21.6610744839       23.0447913358
N                29.2673759315       22.9508808192       27.3583119436
C                28.6274562243       23.2969411284       28.6148076315
C                29.5893348826       24.1427710467       29.4524607356
O                29.2359579146       25.1846231064       29.9943443554
C                28.2370692484       22.0156979038       29.3361420006
H                29.1251564177       21.9997092872       27.0322365855
H                27.7310114861       23.9048633601       28.4249532655
H                27.5982012657       22.2450683062       30.1828068187
H                27.6819779145       21.3806136946       28.6507844834
H                29.1212008490       21.4805719981       29.6742138051
N                30.8209795081       23.6441619929       29.5392656905
C                31.8933747760       24.2749466156       30.2882102109
C                32.1211787664       25.7131411673       29.8179174533
O                32.0322259544       26.6613548802       30.5898459444
C                33.1602269858       23.4233543041       30.1240957997
C                34.2813037124       23.8822958797       31.0133138291
C                35.1028452256       24.9381007109       30.6391843668
C                34.5235243216       23.2476071862       32.2232349881
C                36.1464578511       25.3457691048       31.4452969744
C                35.5759141809       23.6352621213       33.0305371113
C                36.4016015725       24.6825339402       32.6419934199
O                37.4645517728       25.0802244671       33.3876755487
H                31.0180683075       22.7307673411       29.1376612011
H                31.6107807234       24.3456308720       31.3471366983
H                32.8961643761       22.3929115514       30.3697690294
H                33.4732705146       23.4696199019       29.0795181143
H                34.9399116417       25.4365660718       29.6968068321
H                33.8929468273       22.4280599128       32.5306094459
H                36.7826102594       26.1671276170       31.1539951748
H                35.7634060308       23.1182764563       33.9596308541
H                37.5294747769       24.5407715085       34.1877113156
N                32.4534031022       25.8579338113       28.5294973323
C                32.8063613437       27.1629737723       28.0242892517
C                31.6151145305       28.1230330708       27.9976793811
O                31.7944405090       29.3311705501       27.8749786733
C                33.4875072313       27.1354293849       26.6428820413
C                34.7258056476       26.2416853485       26.6617284708
C                32.5284429257       26.6899566695       25.5439327172
H                32.4361940953       25.0626024443       27.9004530485
H                33.5118792142       27.6077699480       28.7421043189
H                33.7857802755       28.1711826892       26.4455910774
H                35.2744299686       26.3591837149       25.7313787644
H                35.3868504199       26.5004353976       27.4857111457
H                34.4335670846       25.1996741091       26.7516259349
H                33.0178062726       26.7704106723       24.5763668385
H                32.2353776914       25.6583597670       25.7063019017
H                31.6381626509       27.3128886446       25.5297760269
N                30.4199695747       27.5448457475       28.1155357841
C                29.1569307615       28.2555207285       28.0882164302
C                28.8670306849       28.8396066311       29.4766274455
O                28.6285808872       30.0279480230       29.6580280770
C                27.9996600995       27.3183743357       27.6854844504
O                26.7466371670       27.8773486822       27.9688022162
H                30.4022212948       26.5296752868       28.0592037050
H                29.2340816850       29.0978563801       27.3893322680
H                28.0982123583       27.0451347555       26.6292916753
H                28.0611757003       26.4073041652       28.2823139452
H                26.5848237964       28.6394116880       27.4000278438
N                23.4710878726       21.8418775579       31.0419983475
C                23.4406973911       21.0409746818       29.8399854414
C                23.1611534297       19.5848714694       30.2021362825
O                22.2772253235       18.9349342249       29.6505778163
C                24.7605263725       21.1559973231       29.0669626925
C                24.8083053933       22.4186797536       28.2456262754
C                25.0531317979       23.6501383997       28.8433822252
C                24.5820917502       22.3713105020       26.8754286589
C                25.0552393174       24.8108246032       28.0891407411
C                24.5960901776       23.5300692855       26.1159504260
C                24.8234766567       24.7519764938       26.7254245550
H                24.3242804300       22.3311245676       31.2867362485
H                22.5998699199       21.3663313656       29.2091630553
H                25.5758128607       21.1236465708       29.7913876277
H                24.8462555352       20.2899130265       28.4080128763
H                25.2716929591       23.6986513277       29.8977794639
H                24.3996814460       21.4183451367       26.3971810582
H                25.2573622843       25.7635961064       28.5529766263
H                24.4322233149       23.4787328414       25.0474441972
H                24.8297824863       25.6566956582       26.1377133964
H                36.9436520765       28.8598011753       16.8594504568
H                35.6385079910       30.2605916574       21.3247964628
H                31.3315756706       30.9083798493       19.6896241515
H                31.4106591761       31.4599688255       22.9943401121
H                22.2880899863       26.7899868588       19.8919827157
H                22.3263306856       23.4022031552       20.0958798454
H                25.0570345981       22.8545265353       16.1987416048
H                23.9925698599       19.7575545832       15.3925854634
H                25.7539122848       22.0628877542       11.4234827230
H                28.2786267039       20.2638843894       12.8761234359
H                32.9904552352       18.3508495978       15.3199689840
H                28.8677261169       28.2438546590       30.2797956122
H                22.8485870435       22.4895637739       30.9872691643
H                23.7056153220       19.1318143311       30.9080402967
