 535 
 
N               147.9084693402       71.5470179873      103.4439728014
C               147.2944723759       72.3457465408      102.4034004524
C               148.3679789833       73.1512306372      101.6553504424
O               148.3770497319       73.2498018012      100.4333090604
C               146.2546687351       73.2938005533      102.9989220326
C               145.0266856456       72.5508151900      103.5357892140
C               144.1330962297       73.5196084118      104.2868010966
O               144.4804151607       74.0635114117      105.3254983311
N               142.9390112072       73.7561711757      103.7256037304
H               147.6381577104       71.7257614069      104.4054776957
H               146.8278255641       71.6812746827      101.6646237180
H               146.7218601363       73.8575223969      103.8085115290
H               145.9501979899       74.0047976780      102.2283719664
H               144.4785321397       72.0800872375      102.7222842125
H               145.3344732928       71.7841460508      104.2483826251
H               142.6553243833       73.3100723657      102.8714998513
H               142.3074281952       74.4038590640      104.1692797578
N               149.2799518000       73.7209014279      102.4409910722
C               150.3968617222       74.4583866137      101.8822484286
C               151.2182167848       73.5141845229      100.9988284742
O               151.6470879596       73.8403995840       99.8964971623
C               151.2519746570       75.0137576634      103.0216060311
C               152.2650172298       76.0516483337      102.5436243258
C               151.5931096989       77.4114455517      102.3598314794
N               152.5620094052       78.4028330661      101.9423851205
C               152.3926718648       79.3522964731      101.0269211990
N               151.2878595669       79.4557772904      100.3065576001
N               153.3745573340       80.2519643300      100.8698362466
H               149.1954167378       73.6731928408      103.4492813714
H               150.0252644526       75.2659760274      101.2370678724
H               150.5857093990       75.4667191770      103.7587664252
H               151.7537264284       74.1729002788      103.5012753635
H               153.0654917033       76.1468191613      103.2782210106
H               152.6995420001       75.7281066565      101.5970933427
H               150.8036796456       77.3338630543      101.6163002326
H               151.1471095963       77.7258323173      103.3098092335
H               153.4195044206       78.4061664515      102.4796952873
H               150.6132239072       78.6717801789      100.1942800650
H               151.2458649155       80.1469404751       99.5759186181
H               154.1842551210       80.2400079012      101.4664191091
H               153.2761236188       81.0031891696      100.2087763373
N               151.4260564178       72.3025134486      101.5190426264
C               152.1776955661       71.3140453176      100.7733907818
C               151.5288879318       71.1129823641       99.4022421744
O               152.2160027305       71.0969379955       98.3837764631
C               152.3338240578       70.0015036661      101.5519560532
C               153.0012798585       68.9499482440      100.6704652676
C               153.1768438665       70.2291232691      102.8068336266
H               151.1539997947       72.1028695088      102.4754910373
H               153.1769256947       71.7197502424      100.5590924624
H               151.3321193379       69.6624527021      101.8290468699
H               153.1290793798       68.0278251094      101.2283508559
H               152.4056158820       68.7489053270       99.7870682857
H               153.9798745613       69.2967800849      100.3473802029
H               153.2929203600       69.2952248922      103.3500807704
H               154.1681591299       70.5859888777      102.5363501533
H               152.7238466751       70.9590749386      103.4708621481
N               150.2050902806       70.9494046158       99.3748705214
C               149.5312794266       70.8163779094       98.0974758038
C               150.0863300089       71.8316707636       97.0863183086
O               150.3822611857       71.5021612263       95.9451640709
C               148.0256858135       71.0517701138       98.2210842644
C               147.2887858346       69.9254604770       98.9455561347
C               145.7956251949       70.2714604353       99.0332174650
N               145.0066178318       69.2176636721       99.6406363715
C               144.6208677136       68.1060727518       99.0065464011
N               144.8394805446       67.9244858920       97.7148347786
N               143.9450923456       67.1695190175       99.6687704014
H               149.6647809460       70.8913535129      100.2321533927
H               149.7303708823       69.8197517321       97.6765431515
H               147.8712359256       71.9934196272       98.7473939561
H               147.6269128996       71.1564744679       97.2106207510
H               147.4217804868       68.9898903186       98.4009185966
H               147.6981471930       69.7908793053       99.9478139245
H               145.6635643050       71.1740087969       99.6300660118
H               145.4029372673       70.4836963276       98.0367874469
H               144.9202985456       69.2297247452      100.6465466974
H               145.3460898428       68.5920430265       97.1614800400
H               144.5914520507       67.0123933373       97.3219538410
H               143.7412140964       67.2417850264      100.6507643896
H               143.7115572782       66.3204076746       99.1666952357
N               150.0821859835       73.0999692365       97.5089023552
C               150.4627966368       74.1950292853       96.6428229849
C               151.8740781162       74.0065459725       96.0882878281
O               152.1588125794       74.2494271159       94.9172553330
C               150.4587658065       75.5244229596       97.4044771022
C               149.0879700912       75.9627316235       97.9137704918
C               149.3150572303       77.3441165148       98.5804995578
O               149.1664737677       78.3646267312       97.8911847027
O               149.6994846883       77.3192044406       99.7762150870
H               149.8473546264       73.3274087636       98.4661510712
H               149.7748118236       74.2446103290       95.7883140849
H               151.1320005617       75.4412516435       98.2603119768
H               150.8430349950       76.3018426491       96.7378686803
H               148.3786623808       76.0671481754       97.0925642823
H               148.7057060775       75.2651406351       98.6592059973
N               152.7728984955       73.6376535281       96.9986379154
C               154.1777664325       73.4651888040       96.6837210518
C               154.3465106341       72.3733015430       95.6243222201
O               155.0570912573       72.5419778959       94.6355182978
C               154.9431067131       73.1302016948       97.9634051750
C               154.9440432493       74.3055546240       98.9519053689
C               155.3078504980       73.8272701363      100.3541461310
C               155.9189671678       75.3963870214       98.5150534561
H               152.4762511787       73.4671098101       97.9538132684
H               154.5665076209       74.3874897528       96.2326838446
H               154.4617150978       72.2619527327       98.4159909235
H               155.9691787448       72.8612493225       97.7123148751
H               153.9354376821       74.7295309770       98.9882691408
H               155.1588287398       74.6332685858      101.0661136251
H               154.6841181231       72.9896191946      100.6504931341
H               156.3494355961       73.5188504813      100.3904529367
H               155.8323687479       76.2647314404       99.1629072945
H               156.9434910285       75.0329034632       98.5783129247
H               155.7339415339       75.7190552589       97.4931434290
N               153.6693377672       71.2536547362       95.8633354346
C               153.6701582794       70.1423079316       94.9278035516
C               153.2949077648       70.6562969637       93.5362382360
O               154.0037068361       70.4617134417       92.5502848465
C               152.6912302369       69.0772157695       95.4028565962
H               153.1014357565       71.1670333103       96.7018150700
H               154.6859663297       69.7318281590       94.8497877044
H               152.6455072808       68.2703992907       94.6778666233
H               153.0258589413       68.6800773362       96.3568119160
H               151.7039571259       69.5152978159       95.5227348285
N               152.1338283428       71.3044855898       93.4584233426
C               151.6819800257       71.8301738089       92.1825960173
C               152.8251302641       72.5935159095       91.5100520422
O               153.1986586525       72.3637831260       90.3666820893
C               150.4430077028       72.7212634058       92.3598236834
C               150.0966119333       73.4026132467       91.0371310162
C               149.2598701169       71.8906734985       92.8539705224
H               151.5818811710       71.4943436860       94.2887659343
H               151.4443427750       70.9904281059       91.5147244701
H               150.6859470275       73.4879092883       93.1028539031
H               149.2112332788       74.0211997333       91.1542025956
H               150.9120304655       74.0370795183       90.6975874059
H               149.9043339547       72.6599923017       90.2662027002
H               148.3781627213       72.5216568172       92.9222343764
H               149.0531470489       71.0831869787       92.1564471216
H               149.4616044980       71.4751485136       93.8364651148
N               153.3674527588       73.5647140208       92.2564516972
C               154.3997494634       74.4135981047       91.7000530486
C               155.5426411578       73.5834484439       91.1106600048
O               156.0163251413       73.8491614263       90.0046050661
C               154.9499764977       75.3605282293       92.7666191641
C               153.9321471975       76.4519668615       93.1156798882
C               154.5524559138       77.4178893424       94.1084555472
O               155.3328696743       78.2974408533       93.7826599090
N               154.2004989205       77.2057337923       95.3889857588
H               153.0482587743       73.7458643088       93.2017300426
H               153.9802505759       74.9978264136       90.8678491264
H               155.2014172181       74.7756068424       93.6536573064
H               155.8633067890       75.8299770954       92.3956604604
H               153.6819546576       77.0100534868       92.2130225728
H               153.0302884183       76.0050561067       93.5319120487
H               153.5062171271       76.5180302793       95.6256083184
H               154.5567251801       77.8182246285       96.1053593803
N               155.9954625792       72.6057161762       91.8883373409
C               157.1740477617       71.8301649151       91.5599160059
C               157.1065841021       71.1587229183       90.1840578142
O               158.1307949242       70.8748772940       89.5795426665
C               157.4195707418       70.7571178524       92.6379208828
O               156.6056790460       69.6293068212       92.5380583783
H               155.5907823389       72.4758937807       92.8135250435
H               158.0491424133       72.4938119576       91.5289213363
H               158.4488862071       70.4039361231       92.5382817916
H               157.3000922598       71.2420133628       93.6195153836
H               155.6603970188       69.9002449748       92.5315056683
N               155.8811225762       70.8851767853       89.7253795359
C               155.6711228684       70.2138026344       88.4633095872
C               156.0108343514       71.0596310273       87.2311617813
O               155.9824372540       70.5640746961       86.1132480676
C               154.2215400972       69.7516189304       88.3687200999
H               155.0554089017       71.1675030920       90.2385859839
H               156.3539362564       69.3543483454       88.4160093492
H               154.0371960530       69.3524944092       87.3758814227
H               154.0291379698       68.9858249968       89.1133431102
H               153.5630891137       70.5987128314       88.5467551074
N               156.2965351585       72.3531506895       87.4376687050
C               156.6051315835       73.2295454379       86.3282165800
C               158.1036531649       73.1888491456       86.0088246582
O               158.9528050030       73.6421040054       86.7752173518
C               156.1819097320       74.6691307142       86.6402858831
C               154.6589653298       74.7235716358       86.6799119639
O               153.9866348097       74.9053519150       85.6771859924
N               154.1368701193       74.5428742316       87.8972367879
H               156.3716201406       72.7286642676       88.3760379114
H               156.0477564328       72.8538934945       85.4614311697
H               156.6069443387       74.9741294075       87.5947234852
H               156.5454209710       75.3299394805       85.8534584363
H               153.1385123979       74.4493107553       87.9925313507
H               154.7271768577       74.2997410588       88.6848305753
N               158.4091200545       72.7036232760       84.8031072734
C               159.7735813301       72.5103853233       84.3534356124
C               160.5891074559       73.7999949394       84.1932657659
O               161.7694174840       73.7456650929       83.8918764987
C               159.7504017747       71.8001651063       82.9948812523
O               159.0052073804       70.6158537408       83.1263355224
H               157.7198359789       72.1615334300       84.2957156083
H               160.3166456940       71.8890205201       85.0784206165
H               159.2909822510       72.4719496309       82.2563616706
H               160.7883204073       71.6073216396       82.7025298238
H               159.0562208150       70.1118246287       82.3047854971
N               159.9156316352       74.9543285539       84.3235481763
C               160.6043135784       76.2173471093       84.3966056595
C               161.4847790157       76.3760839741       85.6476938002
O               162.4070524099       77.1802809246       85.6341681564
C               159.5650800506       77.3538816924       84.3509860729
O               158.5554511345       77.0188298195       85.2861166882
C               158.9886747725       77.5105313078       82.9441903422
H               158.9829452555       74.9734971780       84.7112533862
H               161.2874826492       76.3051101870       83.5453327173
H               160.0812943002       78.2745547404       84.6574778084
H               157.9899787490       77.7890994310       85.4202633364
H               158.2394373960       78.2974912453       82.9328264228
H               159.7806481210       77.7698730207       82.2493888147
H               158.5286183018       76.5769892228       82.6331129439
N               161.1443730399       75.6491960252       86.7178479032
C               161.9748909953       75.6360584296       87.9072590466
C               163.3354657498       74.9985185251       87.5802969712
O               163.4025085906       73.8904150523       87.0626497919
C               161.3203665073       74.7835004200       88.9986304853
C               160.1467620610       75.4963176795       89.6528090779
O               160.2846072963       76.2672612469       90.5955846403
N               158.9580544646       75.1982209092       89.1255004921
H               160.4320418167       74.9283429139       86.6503995230
H               162.1395865796       76.6642677930       88.2510851180
H               160.9963747458       73.8402963106       88.5586219119
H               162.0632081787       74.5777258095       89.7700272786
H               158.1280244781       75.6077281903       89.5231087001
H               158.8726703532       74.5523973017       88.3437158211
N               165.6348113012       76.4264774603       92.2293918917
C               164.2316281327       76.6967706171       92.4782617347
C               163.6110455617       75.5325334611       93.2349193404
O               162.8987942395       75.6959405982       94.2230266487
C               163.4939081798       76.8770531421       91.1641997415
C               163.8649672129       78.2192916065       90.4550584902
O               164.1026020878       79.2011979595       91.1744860345
O               163.8746170424       78.1812329950       89.2066772328
H               165.9869673737       76.5940098824       91.2982597860
H               164.1250920605       77.6087789789       93.0829756934
H               163.7164848890       76.0477878955       90.4943722460
H               162.4152909295       76.8999397550       91.3387193844
N               163.8511741203       74.3338819195       92.7048023247
C               163.3113845959       73.1348303599       93.3051336044
C               163.8156707824       72.9884675028       94.7411787492
O               163.0574174960       72.6293600761       95.6382851870
C               163.6722149849       71.8954651653       92.4936864423
C               163.0486243955       71.8490129006       91.0912896534
C               163.5333885649       70.5835926413       90.3865235941
C               161.5235951703       71.8425950047       91.1671294957
H               164.4433011971       74.2481210651       91.8894242567
H               162.2215678320       73.2429245341       93.3819321158
H               164.7621833560       71.8574152948       92.4205362300
H               163.3299094996       71.0176300307       93.0466638146
H               163.3813363855       72.7233266727       90.5191203690
H               163.1311052331       70.5396980419       89.3787442604
H               164.6194594319       70.5724460436       90.3213732168
H               163.2009889322       69.7152775616       90.9502940894
H               161.0942770055       71.6498370328       90.1876941022
H               161.2034656795       71.0590087495       91.8496636033
H               161.1455273442       72.8014965131       91.5150779122
N               164.5361356676       75.2573535683       96.7814888398
C               163.7640249946       76.1826868931       97.5826195764
C               162.4020828444       75.5722143292       97.9391404048
O               161.9880184590       75.5354424113       99.0921694848
C               163.5847271908       77.4984255368       96.8214254650
O               162.8398778362       78.3769361515       97.6255955727
H               164.8515211279       75.5481031020       95.8638869912
H               164.2818381384       76.3795463053       98.5312937943
H               164.5824597730       77.9032108336       96.6017484391
H               163.0753010172       77.2920885619       95.8715491534
H               162.7317533034       79.2169601166       97.1596564172
N               161.7146441350       75.0856047629       96.9064613375
C               160.3966534565       74.5235825337       97.1251758615
C               160.5063285931       73.4780948825       98.2423108936
O               159.6909118871       73.3928346075       99.1508589040
C               159.8111177820       73.9154955377       95.8399985223
C               159.5940360860       75.0115102375       94.7873858522
C               158.5031825473       73.1954704572       96.1588982577
C               159.0323681540       74.4735543567       93.4734566725
H               162.0892792337       75.1664262905       95.9700300068
H               159.7273235221       75.3138816932       97.4961285780
H               160.5360723498       73.1929909129       95.4519196297
H               158.9164102305       75.7715927272       95.1823102869
H               160.5433334170       75.5041370634       94.5730412265
H               158.1112573290       72.7155902451       95.2679308254
H               158.6598183802       72.4380307134       96.9215503088
H               157.7682553525       73.9114398389       96.5173315109
H               159.1430391286       75.2226400808       92.6916779049
H               159.5769086379       73.5835696631       93.1647958224
H               157.9784171215       74.2240610654       93.5616083590
N               161.5386085102       72.6429048147       98.0959918557
C               161.8117900967       71.5775895955       99.0317303760
C               162.0554770570       72.1198804287      100.4316198648
O               161.5282952904       71.5802800417      101.4102570214
C               163.0280213041       70.7621377601       98.5880978993
C               163.2853784864       69.5890839069       99.5346839292
C               162.1635622222       68.5677745455       99.4552712141
O               161.5745807294       68.3485127581       98.3988421340
N               161.8837246595       67.9074632749      100.5769795561
H               162.1559402330       72.7326432305       97.2981516432
H               160.9327832988       70.9191316776       99.0927027752
H               162.8331307282       70.3857590431       97.5819446921
H               163.9000643958       71.4158599370       98.5446215390
H               164.2076809668       69.0835642839       99.2377226200
H               163.4134796397       69.9321343169      100.5602418808
H               162.3289354328       68.1436606863      101.4497448041
H               161.1753225329       67.1740460794      100.5753204231
N               160.9218038841       74.6126633654      101.8886667706
C               159.6354451080       74.9550417510      102.4626953436
C               158.8725011085       73.6896662692      102.8598714146
O               158.3860378365       73.5626050075      103.9809385694
C               158.8493871304       75.8144686552      101.4770650462
C               157.4436166562       76.1044590373      101.9759756430
C               157.3238488619       76.9235146171      103.2815670447
O               156.1274017080       77.1326775302      103.6221332244
O               158.3261245179       77.3088322604      103.8927387872
H               161.1071280244       74.8738726358      100.9274858623
H               159.7940895048       75.5217351349      103.3902253799
H               159.3967877055       76.7477013417      101.3296483746
H               158.7977709859       75.2870995915      100.5212732210
H               156.8882193850       76.6475997503      101.2107103488
H               156.9259914106       75.1641780602      102.1689082741
N               158.7508219238       72.7519864661      101.9183552729
C               158.1150989411       71.4806135871      102.2245947913
C               158.6545842847       70.9427794534      103.5531898328
O               157.9256180079       70.5031082984      104.4318852118
C               158.3519598183       70.4379264803      101.1140107889
C               157.6219229111       70.8483807840       99.8283506326
C               157.8995133852       69.0587346422      101.5916871860
C               157.8645797911       69.8878967357       98.6681632455
H               159.1829396948       72.8774968111      101.0095667533
H               157.0367989906       71.6422437918      102.3589384905
H               159.4286799966       70.4074500329      100.9162910730
H               156.5502950194       70.9033831223      100.0245551586
H               157.9646204471       71.8400089371       99.5292209520
H               158.1441158630       68.3063603391      100.8491694402
H               158.4007217238       68.7830022813      102.5149472117
H               156.8270487172       69.0571853032      101.7684501607
H               157.4612192038       70.3069010150       97.7494246274
H               158.9301611720       69.7174060993       98.5222710082
H               157.3870826297       68.9284790864       98.8406221597
N               157.5410382705       72.4814866685      106.6414013080
C               156.1774101289       72.0681882511      106.9156448490
C               156.1813025577       70.7401999017      107.6830796493
O               155.4912955592       70.5670266959      108.6830748588
C               155.3922402345       71.9016459416      105.6107768734
C               155.1974853683       73.2116167784      104.8446154786
C               154.1527220350       74.1380917871      105.4906795896
N               154.5895820884       75.5186539929      105.4725955274
C               155.0618645230       76.2275630411      106.4999730661
N               154.9083754027       75.8509140740      107.7677854812
N               155.6100243921       77.4063947278      106.2205644616
H               157.7790334012       72.7313510084      105.6871035273
H               155.6976602759       72.8064025972      107.5719826454
H               155.9351989601       71.1947048214      104.9839732457
H               154.4175429406       71.4758061492      105.8486040136
H               156.1485953352       73.7407401897      104.7767127177
H               154.8855741810       72.9713705879      103.8284126702
H               153.2122132923       74.0743306992      104.9401493848
H               153.9539240444       73.8302449084      106.5151545127
H               154.9006844843       75.8742437126      104.5688110051
H               154.3753562329       75.0414566176      108.0478013408
H               155.3477193094       76.4060364459      108.4827909685
H               155.9060186539       77.5284666201      105.2297417767
H               156.1692254029       77.8433469305      106.9385089716
N               158.8510626399       63.0442499916      101.1441074372
C               158.4169747725       63.8416020700      100.0065865427
C               159.5725256102       64.7544234282       99.5715199090
O               160.0606976884       65.5774615991      100.3381102763
C               157.2032782420       64.6614330402      100.4436154894
C               156.6737161752       65.6313067498       99.3832997099
C               156.2051779169       64.9042133049       98.1275173665
C               155.5172931889       66.4338753162       99.9764273791
H               158.4858444518       63.3107126326      102.0512968385
H               158.1790034129       63.1586950573       99.1876118045
H               156.4146317040       63.9694072206      100.7447782389
H               157.4972102141       65.2256188471      101.3317681880
H               157.4856965350       66.3159864462       99.1137923423
H               155.7758998615       65.6204154897       97.4325678497
H               157.0356082685       64.4040229223       97.6392064438
H               155.4457102574       64.1717627032       98.3896384138
H               155.1768325133       67.1873870881       99.2719272687
H               154.6851305469       65.7725131977      100.2051156450
H               155.8236186926       66.9252343734      100.8956094595
N               159.9729863364       64.6035598857       98.3021879063
C               161.1203833885       65.3118262943       97.7857377091
C               160.9539682108       65.6245333550       96.2976203606
O               160.5770433114       64.7701227196       95.5038711534
C               162.4012939082       64.4666464911       97.9612947246
C               163.5940813951       65.3129113841       97.5716428817
O               163.9624769548       65.4056960364       96.4050084524
N               164.1742191378       65.9737285587       98.5743889389
H               159.6370092357       63.8140875542       97.7546453408
H               161.2137214199       66.2440905462       98.3489697413
H               162.4703284837       64.1456146750       98.9992390328
H               162.3515637935       63.5894892110       97.3127700309
H               164.9419579839       66.6230541671       98.4068561755
H               163.8114009199       65.9035659243       99.5091655143
N               161.2926670760       66.8706706931       95.9459158508
C               161.1265387320       67.3597707983       94.5945290536
C               162.4100448517       67.9668528017       94.0187887530
O               162.3848600996       68.8650252970       93.1880263508
C               159.9431818638       68.3404362732       94.4660999537
C               158.6309176050       67.6380277742       94.8016079953
C               160.1409421238       69.5767760099       95.3409208415
H               161.4879794098       67.5511271686       96.6723410931
H               160.9031923488       66.4777550880       93.9781018912
H               159.9214813141       68.6511844733       93.4166127106
H               157.7934643826       68.2565670704       94.4929248018
H               158.5642228097       66.6878619803       94.2774470398
H               158.5661238821       67.4514543421       95.8707840768
H               159.2937532002       70.2461015629       95.2232317244
H               160.2198680970       69.3017602449       96.3893210749
H               161.0398270016       70.1133173577       95.0472847258
N               163.5500589387       67.4396572343       94.4782939962
C               164.8453569407       67.8880966980       94.0247538864
C               165.3738661450       66.9656267606       92.9163830776
O               164.8563650604       65.8938383640       92.6587119061
C               165.8244424645       67.9119282336       95.2016437877
C               165.4121223903       68.9717081266       96.2251107877
C               166.3129750504       68.8935492461       97.4385489323
O               166.1831106320       68.0134488246       98.2895457584
N               167.2278648350       69.8552198074       97.5302215142
H               163.5539612879       66.6489839009       95.1172396476
H               164.7239478081       68.8973918347       93.6115200739
H               165.8200258778       66.9281860165       95.6745646022
H               166.8371913534       68.1203710766       94.8513526423
H               165.4854146256       69.9634141820       95.7801863869
H               164.3822307791       68.7863444914       96.5368652133
H               167.4146105859       70.4950628822       96.7494523322
H               167.8971306396       69.8288123716       98.2842332034
N               166.4184559224       67.4756065391       92.2462635251
C               167.2218794034       66.7090700050       91.3174683518
C               168.6874314343       66.9207117555       91.7213563020
O               169.0581269439       68.0072334601       92.1615834637
C               167.0263628881       67.2056380213       89.8769174056
C               165.5673401409       67.1471672429       89.4334431613
C               165.3347414604       67.9714679447       88.1784713543
O               166.1725591507       68.7241788180       87.7017792883
N               164.1267549021       67.8019984571       87.6224193471
H               166.8401392191       68.3418726916       92.5533197919
H               166.9124681163       65.6653089785       91.4173243587
H               167.3658092028       68.2409610971       89.8186040015
H               167.6538982819       66.6250189404       89.2007900053
H               165.2559274878       66.1174952381       89.2616466020
H               164.9312212688       67.5647485659       90.2185907328
H               163.4133675623       67.2616209600       88.0814851099
H               163.8743085212       68.3657706687       86.8262844429
N               163.3534819698       61.7458487208       93.7377082641
C               162.0951998700       62.4528277863       93.6345408205
C               160.9443332898       61.4973632097       93.9664436244
O               160.9489180739       60.3342732718       93.5779691009
C               161.9435736464       62.9158963147       92.1622330253
O               163.1706540421       63.3689879789       91.6484479878
C               160.8242929113       63.9397046576       92.0263288484
H               163.8455046641       61.6267798781       92.8620842585
H               162.0889624731       63.3099428047       94.3169473262
H               161.7095017156       62.0279952039       91.5590464015
H               163.4525442117       64.1862793499       92.0878912180
H               160.7635685151       64.2737137052       90.9945687259
H               159.8725238541       63.5038871523       92.3165662987
H               161.0283038491       64.7963930701       92.6642516337
N               153.3035671238       62.6331457842       93.9852991522
C               153.2175546145       63.2960878821       95.2793018321
C               151.7689328720       63.6009092427       95.6515063695
O               151.3224455504       63.3375701492       96.7587941576
C               154.0676304764       64.5657930631       95.1251768304
C               154.1798075938       64.7690224283       93.6149770856
C               154.1951443395       63.3391186161       93.0795334532
H               153.6062341544       62.6362867689       96.0623807326
H               153.6222718332       65.4199744955       95.6305462645
H               155.0565323566       64.3863681075       95.5414565700
H               153.3264395930       65.3241471043       93.2239337326
H               155.0822777256       65.3085095689       93.3413174588
H               153.8464198922       63.2748805325       92.0498029276
H               155.2083956674       62.9267399838       93.1384350078
N               151.0432984328       64.2107132941       94.7065523171
C               149.7076756722       64.7067663492       94.9812831934
C               148.8522215257       63.6119243466       95.6175349724
O               148.2415842119       63.8133270630       96.6602763297
C               149.0474614764       65.2441503715       93.7127936154
C               149.6205069226       66.5938332305       93.2501488688
C               149.0915626586       66.9154125702       91.8539371905
C               149.2549232505       67.7227630773       94.2105804445
H               151.4401297075       64.4038822621       93.7992241673
H               149.7683701667       65.5042723292       95.7333204834
H               149.1636437549       64.5031968507       92.9186262045
H               147.9785422224       65.3591925531       93.9062624069
H               150.7126189713       66.5251627537       93.1975601607
H               149.5030241604       67.8595563852       91.5069692357
H               149.3661488337       66.1413359082       91.1416664740
H               148.0076027320       66.9988306080       91.8735853525
H               149.6384157410       68.6693413559       93.8384934619
H               148.1744570189       67.7991147269       94.3013557524
H               149.6778083131       67.5622108869       95.1983956512
N               149.7237075791       63.0252667969       99.1833887212
C               149.2994000103       64.1410330434      100.0056572907
C               147.7975117616       64.0252591996      100.2905537853
O               147.3436888371       64.1476746933      101.4246023176
C               149.6750092809       65.4721778801       99.3359389196
C               151.2031264093       65.5881835399       99.2254330475
C               149.0964322573       66.6419171049      100.1291674516
C               151.6472700094       66.5594402457       98.1381722183
H               150.0582275235       63.2194302194       98.2456941357
H               149.7991225497       64.0657844076      100.9811212865
H               149.2373985865       65.4609311413       98.3323746334
H               151.6018211961       65.9084361438      100.1884821281
H               151.6261432149       64.6120681285       98.9890235636
H               149.4253599751       67.5869956064       99.7077780024
H               148.0098013259       66.6143019305      100.1182508336
H               149.4284052362       66.5944971328      101.1633868242
H               152.7291716776       66.6616166495       98.1557849165
H               151.3571796269       66.1861617494       97.1591028215
H               151.2079832897       67.5453264767       98.2677336858
H               147.7192770693       70.6779097008      103.3066517505
H               164.1810250423       75.4893619915       87.7903021481
H               166.1399828205       76.9402449062       92.7686921306
H               164.7717374010       73.1858319456       94.9579364424
H               165.2904958912       75.0371524841       97.2201825093
H               162.6448163871       72.9169306744      100.5634912406
H               161.5771149815       75.0061182872      102.3638094757
H               159.6389133390       70.9419760779      103.7295294693
H               157.7380075396       73.2108841277      107.1304641399
H               156.7574886291       69.9844936648      107.3717635805
H               158.6032010702       62.1876262484      101.0226150310
H               169.3450397520       66.1732969626       91.6268976982
H               163.9066498411       62.1956468294       94.2869686465
H               160.1689213043       61.8184369031       94.5101787954
H               153.6912816214       61.8271861945       94.0858307795
H               148.7843936727       62.7141345531       95.1823650411
H               150.4037785646       62.5959164764       99.5873215833
H               147.1590424112       63.8454535673       99.5422043862
