311
Properties=species:S:1:pos:R:3 pbc="F F F"
N      36.15900000      31.13300000      48.54700000 
C      34.78500000      30.67300000      48.73200000 
C      34.73400000      29.20100000      48.32800000 
O      35.38600000      28.78800000      47.36900000 
C      33.70600000      31.47300000      47.97900000 
C      34.15000000      32.19400000      46.68900000 
C      32.95800000      32.29700000      45.71100000 
N      32.95000000      33.55800000      44.97200000 
C      32.74800000      33.73400000      43.67900000 
N      32.42400000      32.72400000      42.88100000 
N      32.83600000      34.94000000      43.12300000 
H      36.61800000      30.75600000      47.73400000 
H      34.58600000      30.74000000      49.79500000 
H      32.89600000      30.79200000      47.74800000 
H      33.29000000      32.20400000      48.64200000 
H      34.53100000      33.17500000      46.93300000 
H      34.96000000      31.66500000      46.19100000 
H      33.03800000      31.50900000      45.00200000 
H      32.02800000      32.21000000      46.23000000 
H      33.04900000      34.41800000      45.52300000 
H      32.19900000      31.83300000      43.21400000 
H      32.71000000      32.76700000      41.88900000 
H      33.16100000      35.72400000      43.66000000 
H      32.57600000      35.10300000      42.19300000 
N      28.74800000      32.40900000      49.54200000 
C      28.50300000      32.05300000      48.18200000 
C      27.82400000      33.19700000      47.42800000 
O      27.58400000      34.27100000      47.95800000 
C      27.63000000      30.77100000      48.11900000 
C      28.20300000      29.69800000      49.01000000 
O      29.39700000      29.39600000      48.98800000 
N      27.32400000      29.09700000      49.83400000 
H      27.97100000      32.45300000      50.18000000 
H      29.45500000      31.85400000      47.71000000 
H      26.61800000      30.98400000      48.35400000 
H      27.65600000      30.36700000      47.09700000 
H      27.63200000      28.43000000      50.48900000 
H      26.36200000      29.36400000      49.85500000 
N      27.48900000      32.93200000      46.12600000 
C      26.84400000      33.91000000      45.30300000 
C      26.19000000      33.18400000      44.13600000 
O      26.74900000      32.20700000      43.61800000 
C      27.86600000      34.97300000      44.78500000 
O      27.21400000      35.84400000      43.83900000 
C      29.09800000      34.39600000      44.12300000 
H      27.76300000      32.08000000      45.70500000 
H      26.10100000      34.42700000      45.86900000 
H      28.16400000      35.55200000      45.66000000 
H      26.66300000      36.49700000      44.25300000 
H      29.79100000      35.17600000      43.90200000 
H      29.59200000      33.68000000      44.77900000 
H      28.83400000      33.88300000      43.19900000 
N      25.01200000      33.67000000      43.73100000 
C      24.34000000      33.21300000      42.52700000 
C      24.77400000      34.09000000      41.33200000 
O      25.47400000      33.59900000      40.43300000 
C      22.84100000      33.23600000      42.72200000 
O      22.49900000      34.54300000      43.26300000 
H      24.58700000      34.42400000      44.21900000 
H      24.65300000      32.21600000      42.29700000 
H      22.32900000      33.09500000      41.78500000 
H      22.55100000      32.47100000      43.41600000 
H      21.60300000      34.66100000      43.47100000 
N      24.42500000      35.35400000      41.34400000 
C      24.61700000      36.26200000      40.21200000 
C      26.06400000      36.37200000      39.76100000 
O      26.32100000      36.39800000      38.58100000 
C      24.02400000      37.63900000      40.52200000 
C      22.51000000      37.68300000      40.56600000 
O      21.86500000      36.66100000      40.25400000 
O      22.01300000      38.79900000      40.91900000 
H      23.79000000      35.66800000      42.06900000 
H      24.09500000      35.84600000      39.35900000 
H      24.42300000      37.98900000      41.47800000 
H      24.36100000      38.33700000      39.77900000 
N      27.04000000      36.46400000      40.69800000 
C      28.42100000      36.63200000      40.24800000 
C      28.89700000      35.31500000      39.62600000 
O      29.67000000      35.36100000      38.65300000 
C      29.36300000      37.15300000      41.33400000 
C      28.84000000      38.49500000      41.90000000 
C      30.79700000      37.29500000      40.82200000 
C      29.53800000      38.94000000      43.20800000 
H      26.84900000      36.38300000      41.67500000 
H      28.41600000      37.34400000      39.43000000 
H      29.35800000      36.42900000      42.16900000 
H      28.99000000      39.26600000      41.13000000 
H      27.79200000      38.44700000      42.08400000 
H      31.44600000      37.68100000      41.58200000 
H      31.20700000      36.35300000      40.48100000 
H      30.82100000      37.98900000      39.97100000 
H      29.15300000      39.88700000      43.53100000 
H      29.36100000      38.20400000      43.98200000 
H      30.61900000      39.03800000      43.07500000 
N      28.46500000      34.15600000      40.14200000 
C      28.87500000      32.89700000      39.54200000 
C      28.31900000      32.73600000      38.14000000 
O      29.00400000      32.14800000      37.27800000 
C      28.46500000      31.68700000      40.39800000 
O      27.11000000      31.29900000      40.24600000 
H      27.81400000      34.17300000      40.88500000 
H      29.94600000      32.89300000      39.44400000 
H      29.05200000      30.84100000      40.05500000 
H      28.73000000      31.88300000      41.43600000 
H      26.48100000      32.00000000      40.49300000 
N      27.13400000      33.28700000      37.84500000 
C      26.62800000      33.22600000      36.48800000 
C      27.51400000      34.05800000      35.56600000 
O      27.85300000      33.58300000      34.46400000 
C      25.12500000      33.63600000      36.43500000 
C      24.65100000      33.82900000      34.98500000 
C      24.28000000      32.55800000      37.12100000 
H      26.57800000      33.68700000      38.55100000 
H      26.70000000      32.21300000      36.10600000 
H      25.01800000      34.57200000      36.96600000 
H      23.57200000      34.02900000      34.97800000 
H      25.13200000      34.68400000      34.51500000 
H      24.84500000      32.95800000      34.38500000 
H      23.23000000      32.85900000      37.13800000 
H      24.35500000      31.62000000      36.60200000 
H      24.58100000      32.39900000      38.15000000 
N      27.92900000      35.24300000      35.98000000 
C      28.84600000      36.03400000      35.16000000 
C      30.20700000      35.36900000      34.98900000 
O      30.84300000      35.52400000      33.93500000 
C      29.05300000      37.49100000      35.66100000 
O      29.94900000      37.55300000      36.78900000 
C      27.77600000      38.24700000      35.89500000 
H      27.61300000      35.60900000      36.85200000 
H      28.43300000      36.10700000      34.16200000 
H      29.60100000      37.97800000      34.86600000 
H      29.74800000      36.92900000      37.48500000 
H      27.99800000      39.27500000      36.12100000 
H      27.13400000      38.23100000      35.01300000 
H      27.20400000      37.84600000      36.72400000 
N      30.66700000      34.63000000      36.00900000 
C      31.94600000      33.90400000      35.90500000 
C      31.83000000      32.75900000      34.92400000 
O      32.79200000      32.53700000      34.13700000 
C      32.40000000      33.42100000      37.27900000 
H      30.20100000      34.62000000      36.87800000 
H      32.68600000      34.57600000      35.49600000 
H      33.34600000      32.89700000      37.17500000 
H      32.53300000      34.25700000      37.94900000 
H      31.67500000      32.73400000      37.70800000 
N      30.71700000      32.02400000      34.91400000 
C      30.54000000      31.03700000      33.85000000 
C      30.49400000      31.73300000      32.49300000 
O      31.11200000      31.23100000      31.55400000 
C      29.33900000      30.07900000      34.01800000 
O      28.08000000      30.69600000      33.69200000 
C      29.29600000      29.37800000      35.36600000 
H      30.01500000      32.19300000      35.57800000 
H      31.42700000      30.41000000      33.80900000 
H      29.45900000      29.34700000      33.23900000 
H      27.88200000      31.50000000      34.20000000 
H      28.54900000      28.60200000      35.34100000 
H      30.25900000      28.90800000      35.57500000 
H      29.07400000      30.05900000      36.16200000 
N      29.80500000      32.84500000      32.36000000 
C      29.66700000      33.56700000      31.10200000 
C      31.01300000      33.90900000      30.48800000 
O      31.20300000      33.81800000      29.27700000 
C      28.83900000      34.84800000      31.24100000 
C      27.35500000      34.58600000      31.35100000 
O      26.84600000      33.50300000      31.08800000 
N      26.61300000      35.65100000      31.69200000 
H      29.24800000      33.20800000      33.14900000 
H      29.18400000      32.92500000      30.37300000 
H      29.18600000      35.41600000      32.07200000 
H      28.99200000      35.45300000      30.36000000 
H      25.62200000      35.56000000      31.75500000 
H      27.00300000      36.54200000      31.90500000 
N      31.98800000      34.35000000      31.34000000 
C      33.31200000      34.68400000      30.86200000 
C      34.03900000      33.49400000      30.22100000 
O      34.85100000      33.69300000      29.33600000 
C      34.12600000      35.20200000      32.06200000 
C      35.51500000      35.69500000      31.65500000 
O      36.50800000      35.06300000      32.12900000 
O      35.57100000      36.68400000      30.87500000 
H      31.74800000      34.49200000      32.28700000 
H      33.25300000      35.44100000      30.10400000 
H      33.58900000      36.03100000      32.49100000 
H      34.21500000      34.41500000      32.81000000 
N      33.72800000      32.26900000      30.72600000 
C      34.46100000      31.08100000      30.27700000 
C      33.50600000      30.03400000      29.66200000 
O      33.66200000      28.85000000      29.95300000 
C      35.27200000      30.46300000      31.40500000 
O      34.47700000      29.88600000      32.44200000 
H      33.05500000      32.16300000      31.41000000 
H      35.13500000      31.37500000      29.51200000 
H      35.96000000      29.72400000      31.00500000 
H      35.86400000      31.25800000      31.88600000 
H      34.06800000      29.07200000      32.13900000 
N      32.63400000      30.46100000      28.76200000 
C      31.73400000      29.50800000      28.06000000 
C      32.39100000      28.97800000      26.76700000 
O      31.83900000      29.02000000      25.67800000 
C      30.37200000      30.11100000      27.76900000 
C      29.56200000      30.25500000      29.05400000 
C      28.09200000      30.56700000      28.83600000 
N      27.46500000      30.53800000      30.18300000 
C      26.18600000      30.52600000      30.45400000 
N      25.26000000      30.57900000      29.49400000 
N      25.78700000      30.42400000      31.73400000 
H      32.52200000      31.42500000      28.56300000 
H      31.60600000      28.65700000      28.69600000 
H      30.46500000      31.06400000      27.25800000 
H      29.85800000      29.45100000      27.08000000 
H      29.63400000      29.32500000      29.60700000 
H      30.01600000      31.01500000      29.66500000 
H      27.94600000      31.54100000      28.37800000 
H      27.62800000      29.80300000      28.22600000 
H      28.09300000      30.56600000      30.96200000 
H      25.52500000      30.67600000      28.53300000 
H      24.29400000      30.54400000      29.69500000 
H      26.47300000      30.42000000      32.46100000 
H      24.84400000      30.43100000      31.98100000 
N      39.73600000      32.04500000      36.58600000 
C      39.14900000      33.08500000      35.73800000 
C      40.19500000      33.65100000      34.75500000 
O      40.56200000      34.82800000      34.80700000 
C      38.48700000      34.20200000      36.53800000 
C      37.18500000      34.69400000      35.95000000 
O      37.01600000      35.88300000      35.62900000 
N      36.22900000      33.75600000      35.80200000 
H      40.70500000      32.02900000      36.76200000 
H      38.40200000      32.60900000      35.13100000 
H      38.27200000      33.82500000      37.54600000 
H      39.14400000      35.04300000      36.65300000 
H      35.36200000      34.01000000      35.38600000 
H      36.36600000      32.82300000      36.10000000 
N      20.97400000      28.81400000      47.00500000 
C      21.13800000      29.06200000      45.61200000 
C      20.66600000      27.81700000      44.87000000 
O      20.82700000      26.67000000      45.37800000 
C      22.57500000      29.47100000      45.15000000 
C      22.97100000      30.78100000      45.86000000 
C      23.61000000      28.37400000      45.39400000 
H      21.15400000      27.87500000      47.32900000 
H      20.46900000      29.87900000      45.34300000 
H      22.49800000      29.66600000      44.09600000 
H      23.92400000      31.11400000      45.45900000 
H      22.25100000      31.55400000      45.70400000 
H      23.09500000      30.62400000      46.91900000 
H      24.60200000      28.76800000      45.06200000 
H      23.70400000      28.13400000      46.43100000 
H      23.42200000      27.49400000      44.82400000 
N      21.46000000      26.36300000      41.18800000 
C      22.28900000      26.67400000      40.03200000 
C      21.63500000      26.19000000      38.73300000 
O      21.95400000      26.70600000      37.67800000 
C      23.71200000      26.06800000      40.23800000 
C      24.81800000      26.58500000      39.31500000 
C      24.96600000      28.11100000      39.31800000 
C      26.16600000      25.94100000      39.71900000 
H      21.68000000      25.58500000      41.77600000 
H      22.36000000      27.73000000      39.94100000 
H      23.98600000      26.32100000      41.27200000 
H      23.66300000      24.99200000      40.17800000 
H      24.59500000      26.26600000      38.28400000 
H      25.79700000      28.41400000      38.68700000 
H      24.08000000      28.61700000      38.94700000 
H      25.17300000      28.47800000      40.32500000 
H      26.94800000      26.23100000      39.04200000 
H      26.44200000      26.27100000      40.73300000 
H      26.08800000      24.86000000      39.72500000 
N      34.83000000      30.29900000      41.39300000 
C      36.07700000      31.03100000      41.26700000 
C      36.42200000      31.79300000      42.56000000 
O      35.68400000      31.72700000      43.56800000 
C      36.00300000      31.98000000      40.04800000 
C      34.92300000      33.05600000      40.11800000 
O      35.21100000      34.20100000      39.75000000 
O      33.76000000      32.65700000      40.48500000 
H      34.02000000      30.79800000      41.14800000 
H      36.86600000      30.33600000      41.12200000 
H      36.95700000      32.45900000      39.90400000 
H      35.82500000      31.36800000      39.18100000 
N      37.81200000      35.76600000      44.04600000 
C      37.79500000      37.18100000      43.72500000 
C      38.94000000      37.91200000      44.39800000 
O      39.27200000      37.68100000      45.59300000 
C      36.39200000      37.74000000      44.14200000 
C      36.34600000      39.27400000      44.31100000 
C      35.36100000      37.31200000      43.09400000 
H      37.51600000      35.49400000      44.95700000 
H      37.90100000      37.27800000      42.65200000 
H      36.13500000      37.29700000      45.10000000 
H      35.33300000      39.56300000      44.57200000 
H      36.99100000      39.61700000      45.09400000 
H      36.61500000      39.78900000      43.38900000 
H      34.37100000      37.57100000      43.41500000 
H      35.54900000      37.81000000      42.14300000 
H      35.40000000      36.25000000      42.92000000 
H      36.16685930      32.02881994      48.46071637 
H      34.16618070      28.56011665      48.84457505 
H      29.31136244      31.81250243      49.91188298 
H      33.30740835      28.57904149      26.79905993 
H      39.37182176      32.08657399      37.40797677 
H      40.59322401      33.05989301      34.05356563 
H      21.53403901      29.34147861      47.47203599 
H      20.22613720      27.90430328      43.97618858 
H      21.45801673      27.06323800      41.75338731 
H      20.95429846      25.45788351      38.75851190 
H      34.85203322      29.57404028      40.86013235 
H      37.24895095      32.35350771      42.60453344 
H      37.27022377      35.32303022      43.48008809 
H      39.45852212      38.60186878      43.89281104 
