503
Properties=species:S:1:pos:R:3 pbc="F F F"
N      33.53200000      24.73000000      22.55900000 
C      33.34700000      25.38300000      23.57400000 
C      34.13600000      25.88400000      23.87700000 
O      34.79200000      27.58600000      24.18800000 
C      31.87600000      25.40100000      24.39100000 
C      31.37100000      26.73500000      25.34100000 
C      30.99600000      27.95100000      24.14600000 
C      30.13800000      26.36700000      26.04100000 
H      32.81600000      23.50000000      23.02300000 
H      32.90500000      26.60500000      22.71800000 
H      31.11100000      25.17400000      23.88400000 
H      32.26800000      24.66000000      25.15300000 
H      32.42100000      27.06500000      25.88600000 
H      30.69700000      28.72400000      25.02800000 
H      31.85400000      28.28100000      23.78100000 
H      30.25300000      27.64600000      23.80100000 
H      30.16800000      27.01700000      26.76800000 
H      29.66200000      26.00400000      25.69600000 
H      30.77200000      25.42600000      26.93100000 
N      35.19000000      25.65100000      24.80100000 
C      36.65500000      25.49400000      25.28900000 
C      37.27900000      26.27200000      24.33600000 
O      38.14100000      27.34400000      24.62500000 
C      36.92000000      24.67200000      26.35200000 
C      36.12800000      24.07100000      27.56300000 
C      38.43100000      24.91100000      26.42900000 
C      36.50000000      23.31700000      28.24100000 
H      34.96800000      24.22400000      24.80500000 
H      36.19500000      26.70400000      26.05200000 
H      37.11000000      23.68300000      25.66500000 
H      36.37300000      25.33900000      28.19900000 
H      35.30700000      24.37100000      27.27300000 
H      38.91600000      24.26300000      27.21300000 
H      39.23800000      25.00800000      25.76700000 
H      38.64600000      25.72500000      27.14200000 
H      35.82700000      22.99200000      29.15200000 
H      36.31700000      22.11300000      27.50200000 
H      37.56800000      23.15300000      28.65300000 
N      36.38500000      29.65800000      23.33300000 
C      36.80200000      30.95500000      24.49900000 
C      38.05000000      31.37000000      24.52300000 
O      38.46800000      32.05900000      24.79900000 
C      35.95300000      30.05600000      25.69700000 
S      34.61000000      30.23300000      26.32600000 
H      35.93500000      29.17400000      23.68500000 
H      36.18600000      31.83100000      24.26800000 
H      36.45200000      29.15000000      25.99900000 
H      36.83500000      30.91900000      26.34300000 
H      33.83900000      31.52700000      26.50000000 
N      38.95000000      30.07200000      24.21000000 
C      40.31000000      30.28600000      24.04500000 
C      40.70000000      31.08600000      23.02100000 
O      41.82900000      32.33100000      23.14800000 
C      41.11100000      28.95500000      24.38200000 
O      40.78100000      28.31600000      25.33400000 
C      42.68600000      29.23300000      24.11000000 
H      38.64300000      29.51100000      24.14400000 
H      40.66800000      30.92600000      25.09800000 
H      40.77700000      28.38900000      23.19300000 
H      39.82400000      27.83400000      25.18000000 
H      43.00800000      28.07200000      24.20000000 
H      42.93700000      29.48100000      23.39500000 
H      42.92200000      29.63500000      24.99100000 
N      39.94700000      35.59800000      22.78000000 
C      40.64900000      36.51500000      23.96700000 
C      42.19200000      37.20800000      22.58200000 
O      42.38600000      37.96000000      23.34100000 
C      41.41800000      35.53100000      24.59100000 
C      40.18200000      35.40700000      26.04600000 
C      41.28100000      34.62600000      27.28400000 
C      39.89700000      36.34600000      26.47400000 
H      40.10000000      34.12100000      23.36500000 
H      40.33500000      36.94600000      23.95100000 
H      41.90000000      34.86200000      24.77200000 
H      42.26700000      36.44300000      25.44800000 
H      39.86300000      34.83100000      25.79800000 
H      40.52400000      34.36300000      28.06100000 
H      41.61100000      33.71400000      26.89000000 
H      41.99800000      35.24600000      27.64200000 
H      39.11000000      36.42000000      27.63400000 
H      40.61200000      37.47200000      27.09900000 
H      39.17300000      37.16200000      25.92500000 
N      29.30900000      32.51800000      19.07100000 
C      28.80200000      31.85000000      20.49700000 
C      27.39200000      31.20500000      20.06700000 
O      27.20100000      30.67300000      20.36600000 
C      29.00700000      33.03500000      21.36900000 
C      30.28400000      32.67400000      22.41700000 
C      30.37500000      32.11800000      22.86800000 
C      31.16800000      34.23900000      21.91700000 
C      31.78200000      31.87500000      23.97400000 
C      32.50300000      33.55200000      22.93100000 
C      32.54200000      33.08200000      23.40000000 
H      29.74200000      33.70100000      19.18000000 
H      29.33300000      31.07600000      20.50400000 
H      28.64200000      34.09300000      21.06600000 
H      28.05200000      32.70100000      22.09700000 
H      29.56800000      31.17200000      23.30000000 
H      31.00500000      34.49700000      21.48200000 
H      31.82600000      30.93500000      24.62500000 
H      33.04200000      34.63600000      22.58600000 
H      33.56100000      32.78800000      24.17100000 
N      27.16700000      20.15400000      27.43500000 
C      26.94400000      21.76000000      27.68600000 
C      25.63200000      22.32000000      27.89600000 
O      25.22200000      22.55500000      26.57900000 
C      28.36700000      22.84300000      27.68900000 
C      28.06400000      24.09300000      28.42100000 
C      29.18900000      22.08700000      27.91900000 
H      27.52200000      20.84800000      26.01200000 
H      27.19600000      21.39800000      29.23400000 
H      28.01300000      23.02700000      26.67400000 
H      28.80700000      24.69500000      28.25300000 
H      26.93000000      24.69800000      28.28800000 
H      27.97200000      23.78900000      29.72800000 
H      30.47300000      23.03700000      27.60700000 
H      29.73000000      21.76700000      29.01600000 
H      29.76900000      21.28700000      27.26900000 
N      21.48000000      26.43700000      32.47700000 
C      21.91900000      25.76600000      33.72300000 
C      22.02300000      26.61600000      34.78900000 
O      21.95200000      28.56800000      34.18300000 
C      23.47100000      25.40400000      33.45100000 
C      23.92800000      25.03400000      35.23200000 
O      24.51300000      25.75700000      35.21300000 
N      24.00000000      23.94300000      35.87600000 
H      22.27400000      26.10500000      31.55500000 
H      21.36600000      25.00400000      34.25400000 
H      23.43100000      24.31800000      33.27300000 
H      23.88500000      25.86500000      33.09300000 
H      23.98000000      23.46100000      36.32500000 
H      23.25500000      22.68700000      35.15000000 
N      23.96700000      28.02100000      36.91900000 
C      24.99800000      29.18700000      37.02800000 
C      25.55000000      30.13900000      35.72400000 
O      25.76500000      30.79200000      35.48000000 
C      26.06000000      28.21100000      37.35000000 
C      27.50400000      29.14600000      37.84600000 
C      25.88500000      27.81800000      38.93800000 
H      23.96700000      27.62900000      36.63700000 
H      24.79000000      30.08100000      37.62700000 
H      26.46500000      27.62100000      37.11300000 
H      28.25600000      28.66500000      38.16300000 
H      27.88500000      29.64100000      36.74800000 
H      27.31700000      30.12800000      38.22900000 
H      26.53900000      27.22800000      39.36300000 
H      25.47700000      28.68200000      39.66600000 
H      24.92200000      27.08300000      38.95300000 
N      25.27800000      28.91600000      34.43500000 
C      25.78300000      29.25600000      33.37300000 
C      24.74600000      30.61900000      32.48500000 
O      25.20300000      31.19600000      31.92900000 
C      25.87700000      28.48900000      32.01100000 
C      27.25000000      27.48400000      32.66400000 
C      26.94500000      26.06900000      31.40500000 
C      28.30500000      27.85600000      33.04700000 
H      24.89000000      28.11800000      34.53800000 
H      26.58500000      30.15700000      33.30400000 
H      24.95700000      27.78300000      32.01300000 
H      26.15400000      28.74300000      31.33300000 
H      26.66500000      26.64000000      33.50600000 
H      27.93700000      25.64700000      31.73700000 
H      26.42800000      25.90200000      31.17900000 
H      27.62500000      26.98100000      30.53400000 
H      29.02600000      27.26300000      33.14900000 
H      28.73100000      28.63200000      32.17500000 
H      28.32100000      28.52300000      33.88800000 
N      25.77500000      34.28400000      33.02100000 
C      27.06000000      34.35500000      32.32500000 
C      26.92500000      34.74900000      30.89900000 
O      27.50100000      35.32800000      30.37500000 
C      27.90700000      33.60300000      32.70400000 
C      28.63100000      33.63800000      34.30300000 
C      29.37200000      32.52900000      34.93100000 
C      28.79100000      34.97600000      34.85200000 
H      25.55100000      33.42500000      33.43700000 
H      27.31200000      35.65600000      32.69600000 
H      27.68700000      32.57200000      32.64400000 
H      28.93900000      33.75700000      32.48600000 
H      27.20300000      33.25100000      34.97800000 
H      29.46100000      32.41500000      35.68800000 
H      28.92900000      31.41900000      34.41900000 
H      30.27100000      32.69200000      34.23700000 
H      29.11500000      34.85200000      35.97700000 
H      29.64600000      35.24200000      34.35800000 
H      28.07900000      35.66600000      34.85300000 
N      26.34300000      33.64200000      30.56200000 
C      25.92100000      33.48700000      28.82000000 
C      24.97200000      34.71800000      28.62100000 
O      25.59200000      35.55300000      27.15200000 
C      25.61500000      32.39400000      28.14000000 
C      25.02000000      32.42400000      26.97200000 
C      26.58100000      31.35600000      28.57300000 
H      25.82900000      32.96600000      30.64400000 
H      27.13000000      33.81000000      28.28100000 
H      24.52300000      32.00200000      29.03800000 
H      24.81900000      31.38900000      26.52100000 
H      24.23500000      33.03200000      26.68100000 
H      25.88600000      32.72200000      26.24100000 
H      26.06200000      30.11300000      28.21900000 
H      27.41600000      31.35600000      27.91800000 
H      26.94600000      31.02400000      29.61100000 
N      27.24800000      38.12800000      28.38900000 
C      27.96000000      37.65200000      27.42900000 
C      27.73200000      38.23000000      26.18300000 
O      28.08900000      39.18200000      25.27500000 
C      28.92600000      36.71900000      27.35400000 
C      29.82800000      36.22800000      26.03000000 
C      30.65900000      37.21900000      26.17000000 
C      30.17600000      34.88500000      25.96800000 
H      27.19300000      37.09100000      28.99000000 
H      28.97100000      38.65100000      27.50400000 
H      29.38200000      36.24300000      28.15300000 
H      27.92400000      35.65700000      27.29800000 
H      29.30600000      36.35000000      25.29000000 
H      31.81800000      36.94800000      25.20000000 
H      30.69700000      38.28000000      25.99500000 
H      31.61700000      37.11100000      27.08800000 
H      30.85900000      34.60400000      25.36400000 
H      30.89400000      34.57900000      27.23900000 
H      29.49300000      34.07400000      26.15500000 
N      35.91500000      41.30700000      27.62400000 
C      36.98000000      40.54000000      28.02800000 
C      36.54600000      39.37000000      29.53100000 
O      36.97700000      38.77700000      29.93300000 
C      38.39800000      40.77900000      28.22300000 
C      38.59300000      41.34900000      26.69900000 
C      40.25700000      41.94200000      26.67100000 
N      40.56400000      41.84800000      25.50500000 
C      41.32400000      40.84600000      24.41700000 
N      41.54400000      39.75700000      25.42300000 
N      41.57600000      40.70800000      23.67800000 
H      35.94800000      41.96500000      27.58600000 
H      36.94400000      39.46500000      27.61300000 
H      38.08900000      42.20600000      28.60600000 
H      38.81500000      40.65700000      28.58100000 
H      38.90700000      40.07600000      26.26300000 
H      37.97700000      41.61500000      26.03200000 
H      39.87200000      42.97000000      26.79300000 
H      40.72300000      41.69100000      27.16100000 
H      40.32400000      42.65800000      24.42900000 
H      41.56000000      39.87500000      26.49100000 
H      42.08900000      39.09100000      24.97000000 
H      41.01300000      41.50100000      22.72700000 
H      42.05100000      39.77300000      22.89500000 
N      36.02200000      40.56000000      30.48700000 
C      35.60600000      39.89600000      31.85000000 
C      34.48700000      39.25500000      31.61300000 
O      34.66500000      38.02600000      32.55300000 
C      34.67900000      41.30000000      32.60500000 
O      36.04800000      42.51400000      32.65200000 
H      35.61400000      41.80500000      30.07700000 
H      36.32700000      39.88900000      32.14900000 
H      34.17800000      41.79000000      32.10400000 
H      34.78100000      40.98600000      33.41800000 
H      36.05700000      42.97300000      31.97500000 
N      33.52200000      39.40200000      30.70700000 
C      32.60700000      37.98600000      30.70100000 
C      33.02700000      36.73300000      30.14600000 
O      32.61700000      35.77900000      30.58700000 
C      31.29400000      38.88700000      29.89200000 
H      33.42100000      39.74600000      30.35400000 
H      32.17900000      37.82600000      31.69200000 
H      30.56900000      37.79500000      29.82100000 
H      30.91400000      39.31600000      30.22700000 
H      31.53300000      38.90600000      28.94800000 
N      34.11700000      36.82300000      29.04800000 
C      34.70600000      35.83100000      28.83000000 
C      35.37800000      35.24200000      29.63900000 
O      35.48100000      33.75100000      29.97400000 
C      35.56400000      35.96800000      27.42300000 
C      34.68500000      36.43100000      26.21200000 
C      36.38800000      34.69700000      27.08800000 
C      35.60400000      36.67200000      25.03800000 
H      34.30200000      37.70100000      28.73500000 
H      33.84200000      34.96800000      28.40400000 
H      36.16300000      36.83600000      27.52400000 
H      34.09000000      35.46200000      25.96700000 
H      33.95400000      37.05400000      26.48900000 
H      37.01300000      34.93500000      26.18400000 
H      37.19100000      34.58700000      27.81800000 
H      35.80200000      33.89600000      26.91100000 
H      34.62700000      37.16300000      24.12300000 
H      35.98100000      37.67200000      25.28300000 
H      35.89900000      36.17800000      24.61600000 
N      36.24800000      35.66400000      30.72100000 
C      36.76200000      35.42400000      31.56400000 
C      36.17000000      34.38300000      32.71900000 
O      36.23600000      33.74900000      33.08400000 
C      37.88300000      36.58600000      32.38600000 
C      38.90500000      35.73000000      33.47100000 
O      38.19600000      36.00500000      34.83500000 
N      39.62400000      35.24100000      32.95400000 
H      36.29500000      36.77500000      30.40000000 
H      37.65200000      34.36100000      31.28200000 
H      38.37200000      36.76600000      31.64200000 
H      37.20200000      37.11500000      32.66600000 
H      40.37500000      34.76600000      33.99600000 
H      40.01500000      35.06800000      32.43900000 
N      34.74400000      35.28500000      33.06200000 
C      33.93500000      34.41500000      34.10100000 
C      33.37100000      33.47500000      33.72200000 
O      33.17000000      32.25600000      34.33900000 
C      32.85800000      35.48700000      34.08700000 
C      33.37600000      36.76800000      35.29700000 
O      34.29600000      36.68500000      35.80100000 
N      32.51600000      37.76000000      35.35000000 
H      34.74800000      36.04000000      32.72100000 
H      34.43200000      34.40600000      34.72000000 
H      32.34300000      35.95600000      33.35300000 
H      32.09400000      35.02500000      34.88600000 
H      32.61000000      38.58300000      35.82200000 
H      31.46300000      37.79400000      34.63000000 
N      33.15600000      33.16400000      31.71800000 
C      32.53200000      31.96700000      31.41100000 
C      33.47500000      30.80600000      31.67900000 
O      33.41000000      29.60600000      31.98500000 
C      32.29500000      32.10800000      30.26100000 
C      31.54300000      30.90200000      29.42300000 
C      30.06700000      30.51100000      30.14500000 
C      30.70000000      31.40900000      28.06700000 
H      33.21500000      34.06500000      31.46600000 
H      31.89200000      31.50500000      32.19300000 
H      31.19300000      33.01000000      30.16900000 
H      32.92800000      32.59400000      29.50100000 
H      32.16700000      30.27600000      29.34800000 
H      29.82400000      29.52400000      29.67700000 
H      30.71300000      29.84700000      31.28400000 
H      29.64200000      31.00500000      30.40700000 
H      30.68200000      30.59700000      27.55400000 
H      30.41900000      31.93600000      28.13000000 
H      31.84300000      31.81400000      27.48000000 
N      35.02200000      31.15000000      31.26600000 
C      36.25200000      30.35400000      31.23600000 
C      36.29800000      29.56600000      32.72700000 
O      36.37200000      28.57500000      32.74600000 
C      37.31200000      30.75600000      30.72300000 
C      37.50500000      31.36300000      29.38000000 
C      38.50600000      30.06000000      31.20100000 
C      38.61000000      32.04300000      29.04100000 
H      35.25500000      32.31900000      30.92700000 
H      35.79900000      29.40200000      30.63200000 
H      37.52000000      31.98600000      31.27500000 
H      37.39600000      29.97300000      28.85700000 
H      36.49400000      31.61300000      28.99900000 
H      39.58100000      30.67100000      30.98000000 
H      38.82400000      30.05700000      32.38600000 
H      38.63000000      29.25800000      30.97200000 
H      38.44000000      32.20500000      27.68900000 
H      38.57100000      32.84200000      29.18900000 
H      39.40800000      31.46300000      28.90700000 
N      36.11200000      30.29500000      33.84000000 
C      36.88700000      29.79300000      35.02300000 
C      35.27400000      28.75200000      35.44400000 
O      35.73800000      27.78800000      36.32500000 
C      36.55300000      30.90000000      36.15300000 
C      37.93800000      31.38200000      35.85300000 
C      35.49300000      31.35000000      36.67700000 
H      36.05900000      31.18300000      33.69200000 
H      37.20400000      29.24600000      34.94300000 
H      37.07700000      30.08400000      37.18500000 
H      38.19500000      32.27400000      36.78800000 
H      38.81000000      31.07400000      35.56000000 
H      37.64200000      32.43300000      35.03400000 
H      35.75700000      32.21300000      37.46800000 
H      35.13600000      32.14700000      35.88700000 
H      34.79900000      31.00000000      37.00000000 
N      34.03600000      28.84100000      34.79400000 
C      33.16100000      27.77900000      35.61600000 
C      33.15800000      26.51800000      34.24300000 
O      33.06200000      25.70200000      34.84400000 
C      31.73300000      28.52700000      35.19400000 
C      31.37900000      29.39700000      36.30900000 
C      31.46800000      28.92900000      37.75900000 
O      31.21900000      27.68200000      37.82800000 
O      31.72700000      29.61200000      38.58300000 
H      34.00600000      29.48500000      34.46000000 
H      33.22600000      27.54200000      36.11100000 
H      31.54600000      29.02700000      34.18400000 
H      31.04600000      27.75200000      35.16300000 
H      32.17100000      30.50100000      36.28800000 
H      30.40700000      29.87100000      36.16500000 
N      33.83300000      27.06100000      32.84300000 
C      33.78400000      25.76700000      32.32200000 
C      35.15100000      24.76300000      32.62000000 
O      34.99800000      23.58600000      32.54600000 
C      34.05800000      26.01800000      30.66700000 
C      32.94400000      26.48200000      30.25400000 
C      33.06800000      27.05600000      28.51000000 
C      31.40400000      26.08300000      30.03500000 
H      33.73300000      27.36500000      32.82300000 
H      33.08100000      24.96500000      32.31600000 
H      34.96500000      26.70600000      30.65500000 
H      34.24900000      25.17500000      30.20000000 
H      32.61100000      27.66900000      30.67000000 
H      32.42100000      27.72600000      28.28200000 
H      34.02600000      27.84900000      28.65200000 
H      33.33600000      26.39700000      28.16800000 
H      30.98400000      26.11100000      29.80000000 
H      31.80100000      24.86800000      29.65000000 
H      31.34900000      25.59300000      31.06300000 
N      36.05400000      24.93500000      33.20400000 
C      37.44600000      24.67100000      33.74100000 
C      36.80900000      23.88000000      34.82800000 
O      37.46600000      22.41800000      34.97500000 
C      38.35100000      25.52300000      34.16400000 
C      39.10400000      26.15500000      33.31300000 
C      39.41500000      24.83400000      35.11700000 
C      40.12700000      27.35100000      33.13100000 
H      36.29500000      26.70700000      33.24500000 
H      37.62900000      23.97600000      32.88400000 
H      38.00800000      26.44100000      34.63800000 
H      39.69500000      25.28200000      32.36000000 
H      38.41900000      26.62000000      32.04400000 
H      40.16900000      25.66800000      35.41000000 
H      38.97600000      24.64200000      36.04000000 
H      39.84100000      24.15900000      34.78400000 
H      40.53700000      27.67900000      32.34500000 
H      39.70900000      27.93900000      33.69700000 
H      40.89800000      26.87500000      33.79100000 
N      35.85700000      24.03500000      35.73800000 
C      35.28900000      23.18000000      36.72500000 
C      34.42200000      22.21700000      36.73900000 
O      34.00000000      21.74100000      37.13100000 
C      34.74700000      24.75700000      37.46000000 
C      35.72300000      25.37400000      38.78700000 
C      35.10800000      26.44400000      39.29000000 
N      36.02200000      27.48600000      39.43500000 
C      36.66700000      27.44300000      40.86200000 
N      36.64400000      26.63900000      41.74200000 
N      37.57800000      28.60700000      41.00100000 
H      35.45400000      25.14400000      35.51400000 
H      36.26500000      22.85300000      37.26600000 
H      34.12600000      24.91000000      37.50900000 
H      34.29300000      23.68500000      38.76400000 
H      36.36200000      24.78000000      39.07500000 
H      36.42900000      25.76200000      37.54200000 
H      34.34000000      26.90500000      38.54400000 
H      34.57100000      26.12600000      39.93200000 
H      36.24300000      28.26000000      38.92100000 
H      36.01500000      25.84800000      41.52200000 
H      37.03200000      26.77500000      42.43400000 
H      37.62100000      29.44400000      40.17700000 
H      38.08900000      28.66600000      41.68800000 
N      33.89100000      22.41000000      35.06300000 
C      32.99500000      21.26300000      34.91200000 
C      31.53100000      21.68900000      34.94400000 
O      30.61300000      20.80200000      34.93500000 
H      34.19200000      22.86400000      34.59700000 
H      33.05400000      21.19900000      33.61300000 
H      33.13200000      20.44600000      35.13900000 
N      31.09600000      23.06400000      35.34200000 
C      29.99000000      23.21700000      35.74500000 
C      28.97800000      23.32000000      34.29800000 
O      29.33300000      23.66600000      33.65500000 
C      29.90300000      25.08100000      36.34100000 
O      30.64800000      24.71900000      37.36200000 
C      28.55100000      24.93200000      36.98800000 
H      31.88600000      23.54200000      35.28900000 
H      29.42300000      22.79900000      36.39600000 
H      30.36900000      25.39500000      35.57200000 
H      30.78100000      25.87800000      37.71700000 
H      28.59600000      26.41000000      37.18400000 
H      27.71800000      25.30800000      35.72400000 
H      28.10300000      24.81200000      37.34400000 
N      28.02800000      23.02500000      34.40900000 
C      26.79800000      22.79200000      33.33000000 
C      27.16000000      21.59300000      32.22600000 
O      26.49100000      21.73500000      31.53600000 
H      27.36600000      22.31300000      35.68700000 
H      25.77300000      22.38600000      33.88100000 
H      26.74300000      23.43400000      32.97600000 
N      27.92300000      20.60900000      32.86300000 
C      28.36000000      19.43800000      31.98800000 
C      27.42200000      18.22700000      32.31000000 
O      27.67200000      17.93100000      33.42100000 
C      29.79100000      19.20100000      31.74400000 
O      30.71500000      20.43700000      31.30300000 
H      28.44000000      20.66500000      33.63300000 
H      27.94600000      19.81000000      30.88700000 
H      30.18400000      19.09600000      32.86400000 
H      29.95100000      18.50300000      31.27100000 
H      31.02900000      20.43900000      31.22300000 
H      33.16130739      25.15420718      21.85712020 
H      37.12984019      26.08807309      23.36444339 
H      35.96541717      30.01661125      22.62212152 
H      40.31022135      30.95685041      22.10919246 
H      39.08877876      35.84798189      22.67528442 
H      42.32975779      36.73711167      21.71062925 
H      29.97724723      32.02231633      18.72786252 
H      26.84255595      31.63598552      19.35120484 
H      27.79863560      19.84683283      27.99774754 
H      25.27928235      22.43268905      28.82491950 
H      20.64262908      26.17658555      32.27452962 
H      22.11864229      26.24846800      35.71407988 
H      23.89641077      27.60699630      37.71500132 
H      23.75936191      30.67557764      32.63778823 
H      25.75930355      34.89082374      33.68546864 
H      24.21938765      34.87755475      29.25984030 
H      27.69448854      38.79854130      28.79027590 
H      27.00597326      37.87650085      25.59314958 
H      35.67567531      41.07257794      26.78867372 
H      26.79109493      17.88432338      31.61391701 
