451
Properties=species:S:1:pos:R:3 pbc="F F F"
N      42.34300000      46.46100000      70.42800000 
C      42.74300000      44.88400000      71.24400000 
C      41.35600000      45.00800000      72.33100000 
O      41.31000000      46.23500000      72.98700000 
C      43.84300000      45.31200000      71.92000000 
C      45.32800000      45.41100000      71.00900000 
C      46.34500000      45.84300000      71.67000000 
C      45.42900000      44.01000000      70.42500000 
H      42.39500000      47.09000000      70.66300000 
H      42.53600000      44.27900000      70.82500000 
H      43.95200000      46.26200000      72.55300000 
H      44.07200000      44.43100000      72.75200000 
H      45.05100000      46.00900000      70.37900000 
H      47.27500000      45.67000000      71.20800000 
H      46.36600000      46.51300000      72.33600000 
H      46.69100000      44.79200000      72.71700000 
H      46.28500000      43.97500000      69.71100000 
H      45.46400000      43.10000000      71.07500000 
H      44.51800000      43.72700000      69.59800000 
N      40.88700000      44.24000000      72.45800000 
C      39.58900000      43.93600000      73.49200000 
C      39.98100000      42.89500000      74.45000000 
O      40.28900000      41.67600000      74.07400000 
C      38.36900000      43.57100000      72.80900000 
C      37.98600000      44.39300000      71.55400000 
O      38.00700000      45.49300000      71.62800000 
O      37.62400000      43.81500000      70.72300000 
H      40.96000000      43.19000000      71.87800000 
H      39.63400000      44.87000000      73.95800000 
H      38.34400000      42.52100000      72.60400000 
H      37.57400000      43.70600000      73.60500000 
N      39.93700000      43.01600000      75.97900000 
C      40.41900000      42.08500000      76.66400000 
C      38.95300000      42.05800000      77.66100000 
O      38.56700000      43.00000000      78.47600000 
C      41.27200000      42.62200000      77.64100000 
C      42.01000000      42.05000000      78.76800000 
N      42.66000000      42.30800000      79.62300000 
C      41.85600000      40.27600000      78.95900000 
C      43.23900000      41.28100000      80.81000000 
N      42.60400000      40.50000000      79.93900000 
H      39.83700000      44.21400000      76.03600000 
H      40.43600000      41.33700000      76.43300000 
H      42.25300000      42.88900000      76.89600000 
H      41.20300000      43.63900000      78.11700000 
H      41.42300000      39.67500000      78.40700000 
H      43.68100000      41.46500000      81.29700000 
H      42.80600000      39.24400000      80.60800000 
N      38.37600000      40.87400000      77.65100000 
C      37.14000000      40.72800000      78.53900000 
C      37.18500000      39.17800000      79.14500000 
O      36.35900000      38.55800000      79.31600000 
C      35.84100000      40.55600000      77.57500000 
O      35.80100000      39.62500000      76.56500000 
H      38.65100000      40.13000000      76.93700000 
H      37.07800000      41.24000000      79.12000000 
H      35.01900000      40.61700000      78.19800000 
H      35.85300000      41.53600000      77.02300000 
H      35.57500000      38.80200000      77.00100000 
N      38.29500000      38.79900000      79.63000000 
C      38.54400000      37.70500000      80.14900000 
C      38.86900000      37.87000000      81.71000000 
O      38.24500000      39.00000000      82.39900000 
H      39.33800000      39.57100000      79.38900000 
H      38.02000000      37.01300000      80.18400000 
H      39.80300000      37.22100000      79.92900000 
N      39.60400000      36.98700000      82.57000000 
C      39.63700000      37.02700000      83.89800000 
C      41.15400000      36.93000000      84.30800000 
O      41.49200000      36.61200000      85.57600000 
C      38.76600000      36.06400000      84.50400000 
H      39.89400000      36.16000000      81.96700000 
H      39.37700000      38.05200000      84.29000000 
H      39.00300000      35.97800000      85.70300000 
H      37.94700000      36.08600000      84.36600000 
H      39.20900000      34.90200000      84.26300000 
N      42.34700000      37.21600000      83.49600000 
C      43.48300000      37.14900000      83.52700000 
C      44.18800000      38.46800000      83.33700000 
O      43.96500000      39.10900000      82.75600000 
C      43.98500000      35.82300000      83.05700000 
C      44.13600000      36.14100000      81.13800000 
C      44.58800000      36.57800000      80.50000000 
C      42.41100000      34.89600000      80.98400000 
C      44.61100000      36.63000000      79.28800000 
C      42.71700000      35.30000000      79.21700000 
C      43.33800000      35.57700000      78.50900000 
O      43.27200000      35.52900000      77.18100000 
H      41.79800000      37.57000000      82.44700000 
H      43.63900000      36.79400000      84.73200000 
H      45.19700000      35.83900000      82.98500000 
H      43.75700000      35.11300000      83.15600000 
H      45.46800000      37.18100000      80.80100000 
H      42.24000000      34.78800000      81.37300000 
H      45.14800000      36.99000000      78.40500000 
H      41.80400000      34.48100000      79.05600000 
H      42.76300000      35.16100000      76.93200000 
N      45.59800000      38.27800000      84.18000000 
C      46.59100000      39.37500000      83.91100000 
C      47.58500000      39.10500000      82.70500000 
O      47.81900000      37.71400000      82.65000000 
C      47.11700000      39.84900000      85.20700000 
C      46.32500000      40.56700000      86.15000000 
C      47.79400000      38.39900000      85.89000000 
H      45.72100000      37.75900000      84.56800000 
H      46.00600000      40.36600000      83.58200000 
H      48.31100000      40.23800000      84.84500000 
H      47.05500000      40.93000000      86.98100000 
H      46.28500000      41.67400000      85.50800000 
H      45.60200000      40.30200000      86.32600000 
H      48.42200000      38.73100000      86.75000000 
H      46.72100000      38.08500000      86.60500000 
H      48.02200000      37.73700000      85.45000000 
N      47.77700000      39.93400000      82.09300000 
C      48.58900000      39.97200000      80.71600000 
C      49.74400000      40.74100000      80.48400000 
O      49.29500000      42.14100000      81.02400000 
C      47.86200000      39.57900000      79.45600000 
H      47.55000000      40.93300000      82.05100000 
H      49.37300000      38.75500000      80.95100000 
H      48.37600000      39.36600000      78.68200000 
H      47.17000000      38.73000000      79.68700000 
H      47.22000000      40.40100000      79.40700000 
N      50.52500000      40.60400000      79.92300000 
C      51.53300000      41.90000000      79.09200000 
C      51.50300000      41.57100000      78.06400000 
O      51.48500000      40.47300000      76.99400000 
C      53.27300000      41.46900000      79.78200000 
C      53.30400000      41.74700000      81.07600000 
C      54.81500000      41.49700000      81.14900000 
O      55.68100000      40.93800000      80.73400000 
N      55.40400000      42.25800000      82.77500000 
H      50.87200000      39.71700000      79.44900000 
H      51.33200000      42.58900000      79.65200000 
H      53.34100000      40.29200000      79.38200000 
H      53.72100000      42.03800000      78.98000000 
H      53.10500000      42.77500000      81.34700000 
H      52.85400000      41.07900000      81.79000000 
H      54.72500000      42.66200000      83.06400000 
H      56.22300000      42.07200000      82.78500000 
N      51.55000000      43.22800000      77.24800000 
C      51.51100000      43.15900000      75.54000000 
C      53.04900000      43.79500000      75.28300000 
O      53.30700000      44.75700000      76.05900000 
C      50.44900000      43.90400000      75.44600000 
C      49.26000000      43.40300000      75.53100000 
C      48.23500000      42.62800000      76.01300000 
C      47.86600000      44.83400000      75.44200000 
C      47.74600000      42.05000000      76.19200000 
C      47.04000000      43.92600000      75.76100000 
C      46.44100000      43.51100000      76.03700000 
O      44.99300000      42.86600000      76.43100000 
H      51.57200000      43.61200000      77.65400000 
H      51.57700000      42.08900000      75.27800000 
H      50.69700000      45.03600000      75.58000000 
H      50.65400000      44.03900000      74.02800000 
H      49.45900000      41.46000000      76.07300000 
H      48.36600000      45.49300000      75.16100000 
H      46.98600000      40.97000000      76.62400000 
H      45.84500000      45.31000000      75.58800000 
H      44.82900000      42.04600000      76.85300000 
N      53.58300000      51.60700000      77.06000000 
C      53.24200000      50.43000000      77.56200000 
C      54.03400000      49.63900000      77.36100000 
O      52.76900000      47.98200000      76.70600000 
C      51.69900000      50.62400000      78.03500000 
C      51.16900000      50.72500000      79.45100000 
C      51.54100000      52.25500000      79.88800000 
N      50.79800000      52.97700000      79.38100000 
C      49.55000000      53.69200000      79.04600000 
N      48.83100000      52.96800000      80.28800000 
N      48.95000000      54.27800000      78.55700000 
H      53.05200000      51.47000000      75.64900000 
H      53.75400000      50.81300000      78.64700000 
H      51.13200000      51.17300000      77.38300000 
H      51.26400000      49.32400000      77.73000000 
H      50.37000000      50.51200000      79.62200000 
H      51.92400000      50.02600000      80.17800000 
H      51.28500000      52.28200000      81.02100000 
H      52.66200000      52.40000000      79.88900000 
H      51.44900000      53.65800000      78.30300000 
H      49.07700000      52.45700000      80.86000000 
H      47.88000000      53.25700000      80.26900000 
H      49.74700000      54.71500000      77.55700000 
H      48.25800000      54.65400000      78.39400000 
N      53.39600000      45.73700000      80.88900000 
C      53.15100000      46.01900000      82.19400000 
C      51.66100000      45.30000000      82.39700000 
O      51.23600000      44.98200000      81.49600000 
C      52.51900000      47.75300000      82.00400000 
C      52.15900000      48.24200000      83.37500000 
C      53.07200000      48.92800000      83.99600000 
O      53.84800000      47.34200000      85.17100000 
N      53.87600000      49.66700000      84.46600000 
H      53.05200000      45.35900000      80.26700000 
H      53.71400000      46.07600000      82.98000000 
H      53.37500000      48.20700000      81.64100000 
H      51.74300000      47.71600000      81.31300000 
H      51.64500000      49.23600000      83.13900000 
H      51.36900000      47.73600000      83.85100000 
H      53.39100000      50.53300000      83.77100000 
H      54.53000000      49.96700000      84.88100000 
N      51.74700000      44.95200000      83.38300000 
C      50.31100000      43.98900000      84.06200000 
C      49.12600000      44.38500000      83.59100000 
O      48.90500000      45.71300000      84.46200000 
C      50.29000000      42.91100000      85.02700000 
C      50.97600000      44.03900000      86.25900000 
O      49.88800000      43.79300000      87.58500000 
O      51.78700000      45.02800000      86.34200000 
H      51.99400000      45.09200000      84.35700000 
H      50.40500000      43.13700000      83.01800000 
H      49.94200000      42.65000000      85.27300000 
H      51.50300000      42.54400000      85.12000000 
N      48.19300000      44.08700000      82.96800000 
C      46.86300000      44.66700000      82.52300000 
C      45.69400000      43.62100000      83.11300000 
O      45.85100000      42.64500000      83.02500000 
C      46.61100000      44.99300000      81.39800000 
C      47.63800000      45.97800000      80.73900000 
C      47.79900000      46.22100000      79.08900000 
C      47.56600000      47.62100000      81.40800000 
H      48.40300000      43.44600000      82.50100000 
H      46.81300000      45.69900000      83.41800000 
H      46.80800000      44.08200000      80.66600000 
H      45.70000000      45.39100000      81.07800000 
H      48.69900000      45.80600000      81.04100000 
H      48.31900000      46.74600000      78.80800000 
H      47.96500000      45.04500000      78.81500000 
H      46.62000000      46.24100000      78.77500000 
H      48.02000000      48.13400000      80.86800000 
H      46.23200000      47.81500000      80.95800000 
H      47.42800000      47.52500000      82.17400000 
N      44.70200000      44.39700000      83.78700000 
C      43.48700000      43.52300000      84.14300000 
C      42.14300000      44.16700000      83.41600000 
O      42.15700000      45.21600000      83.16700000 
C      43.34700000      44.14200000      85.83800000 
O      44.68300000      43.72100000      86.40500000 
C      42.26400000      43.11700000      86.41200000 
H      44.68900000      45.34500000      83.82000000 
H      43.72200000      42.58100000      84.15100000 
H      43.10900000      44.95500000      85.84900000 
H      44.63700000      43.94600000      87.22100000 
H      42.27800000      43.33200000      87.49300000 
H      41.32300000      43.33500000      86.06800000 
H      42.51100000      42.02800000      86.30800000 
N      41.47500000      43.15400000      83.32500000 
C      40.10400000      43.47000000      82.52100000 
C      39.27800000      44.31400000      83.14900000 
O      39.23800000      44.39000000      84.76100000 
C      39.22900000      42.10000000      82.07400000 
H      41.50400000      42.13100000      83.54100000 
H      40.34500000      43.84400000      81.61400000 
H      38.56800000      42.26300000      81.90000000 
H      39.92000000      41.44800000      81.79800000 
H      39.11200000      41.62300000      83.34500000 
N      38.43700000      45.22100000      82.91900000 
C      38.18400000      45.27500000      81.04700000 
C      39.33100000      46.82100000      80.93600000 
O      39.49000000      47.29400000      81.32500000 
C      36.94500000      45.92500000      81.06900000 
C      36.52700000      46.32700000      79.16800000 
N      36.76300000      45.08200000      78.55800000 
C      36.37500000      47.10600000      78.86500000 
C      36.59900000      45.78200000      77.52000000 
N      36.25400000      47.36000000      77.69300000 
H      37.88100000      45.77400000      83.21800000 
H      38.43100000      44.53900000      80.81700000 
H      36.14700000      45.08300000      81.32600000 
H      36.60200000      46.76000000      81.55400000 
H      36.96900000      44.43400000      78.64200000 
H      36.20200000      48.38600000      79.29900000 
H      36.57600000      45.32800000      76.34500000 
N      39.75900000      46.04700000      79.43400000 
C      40.70500000      47.27600000      78.95800000 
C      40.37500000      46.88300000      77.51500000 
O      40.33100000      46.10100000      76.80300000 
C      42.32000000      46.72100000      79.07200000 
C      43.02200000      47.49300000      78.87800000 
C      43.92000000      48.88500000      78.86500000 
C      44.08300000      47.04100000      77.45800000 
C      44.47200000      49.54100000      78.86600000 
C      45.09500000      47.92800000      76.87100000 
C      45.32200000      49.11100000      77.64500000 
H      39.59500000      45.41100000      79.07700000 
H      40.56800000      48.03500000      79.25100000 
H      42.24000000      46.62500000      80.34700000 
H      42.27100000      45.61000000      78.82400000 
H      42.93300000      49.11000000      80.26000000 
H      43.72800000      46.19900000      77.03600000 
H      44.82700000      50.40800000      79.16700000 
H      45.56300000      47.57000000      76.18600000 
H      46.11000000      49.71400000      77.21700000 
N      40.32800000      48.31100000      76.66700000 
C      40.23300000      48.35700000      75.43300000 
C      41.12500000      49.49000000      74.96700000 
O      41.39400000      50.64300000      75.71700000 
C      38.87100000      49.06700000      74.86300000 
O      38.00500000      47.87100000      75.00300000 
C      38.58900000      49.26000000      73.48400000 
H      40.44100000      49.22300000      77.41500000 
H      40.44400000      47.54500000      74.85200000 
H      38.53600000      49.87500000      75.62200000 
H      37.35400000      47.92700000      76.16900000 
H      37.78500000      49.57700000      73.26300000 
H      39.35800000      50.21100000      73.23100000 
H      38.99500000      48.56500000      72.86600000 
N      42.21400000      49.33500000      73.70000000 
C      42.88200000      50.23700000      73.46200000 
C      43.13100000      50.22300000      71.80600000 
O      42.60100000      49.16100000      71.30300000 
C      44.42100000      50.29400000      74.02300000 
O      44.86300000      51.66100000      73.88600000 
C      45.18700000      49.19900000      73.76400000 
H      41.89600000      48.45700000      73.43200000 
H      42.41500000      51.32200000      73.54900000 
H      44.01600000      50.26600000      75.20300000 
H      44.68500000      52.26600000      74.41300000 
H      46.06700000      49.27100000      74.29200000 
H      44.76100000      48.28300000      73.77500000 
H      45.53300000      49.35500000      72.65000000 
N      51.93400000      38.77600000      73.17800000 
C      50.95200000      38.36700000      74.15100000 
C      51.15900000      37.27100000      74.51000000 
O      51.10200000      36.39300000      74.45200000 
C      49.26200000      38.64600000      73.37600000 
C      49.26800000      39.98900000      72.66900000 
C      48.66200000      38.28500000      74.45900000 
C      47.85400000      39.85300000      71.77700000 
H      51.81800000      37.59600000      72.06300000 
H      51.12300000      39.53400000      74.51700000 
H      49.39300000      37.80700000      72.69300000 
H      49.22000000      40.78200000      73.43200000 
H      50.14100000      40.14700000      71.97400000 
H      47.33200000      38.51600000      74.08000000 
H      48.47100000      37.50000000      74.94800000 
H      48.55200000      39.24500000      75.38900000 
H      47.92300000      41.00500000      71.26300000 
H      47.98800000      39.28000000      71.11400000 
H      47.17600000      39.92300000      72.36500000 
N      51.37500000      37.67400000      76.35300000 
C      51.47500000      36.31000000      76.84800000 
C      50.88700000      36.46100000      78.44100000 
O      50.54000000      38.07900000      78.89500000 
C      53.21600000      36.60300000      77.60100000 
C      53.96200000      37.64900000      77.80500000 
C      55.30700000      37.07000000      78.36000000 
N      56.08300000      38.03900000      79.20300000 
C      57.17200000      37.97500000      79.42000000 
N      57.76200000      36.92500000      79.04900000 
N      57.79400000      38.92500000      80.45400000 
H      51.36400000      38.56600000      76.51400000 
H      51.34200000      35.70000000      76.68200000 
H      53.26100000      35.33500000      77.98800000 
H      53.65600000      36.10100000      76.29700000 
H      53.81400000      38.25100000      77.54000000 
H      53.29400000      37.74100000      79.12800000 
H      55.33700000      36.20300000      78.86400000 
H      55.81900000      37.00200000      77.41100000 
H      55.41800000      38.91500000      79.51600000 
H      57.78400000      36.43500000      78.68600000 
H      59.09600000      36.88900000      79.55300000 
H      57.12800000      39.67200000      80.74000000 
H      58.69100000      38.87800000      80.71600000 
N      50.51200000      35.51900000      78.73600000 
C      49.56800000      35.62100000      80.23500000 
C      50.24600000      35.09500000      81.33400000 
O      51.08500000      34.21000000      81.27000000 
C      48.18100000      34.54700000      79.76400000 
C      47.43000000      34.22600000      80.74500000 
C      46.15400000      33.14900000      80.50200000 
O      46.15400000      33.04600000      79.39600000 
O      45.73700000      32.77300000      81.56800000 
H      50.65600000      34.71600000      78.55400000 
H      49.12500000      36.36500000      80.23300000 
H      47.91300000      34.80500000      79.02600000 
H      48.91200000      33.46400000      79.43400000 
H      48.02800000      33.75000000      81.86300000 
H      47.02000000      35.08900000      81.28100000 
N      50.09700000      35.64100000      82.41800000 
C      50.20100000      35.41400000      83.81200000 
C      49.85500000      34.21200000      84.08600000 
O      48.22400000      35.12800000      85.26600000 
C      50.83700000      36.47400000      84.60800000 
S      51.68500000      36.09500000      86.24500000 
H      49.29200000      36.48000000      82.44000000 
H      51.51000000      34.61600000      83.58200000 
H      51.60300000      37.19200000      84.02900000 
H      50.01500000      37.07300000      84.83400000 
H      52.84700000      35.72000000      85.80100000 
N      40.15000000      38.63300000      73.05000000 
C      40.44100000      37.75200000      73.91000000 
C      39.28200000      37.39800000      74.92300000 
O      39.04200000      38.43600000      75.70200000 
C      42.03800000      37.58200000      74.39800000 
C      41.97900000      38.94800000      75.09700000 
C      42.87800000      37.25500000      73.27300000 
C      43.68100000      39.17900000      75.83100000 
H      40.10800000      39.66000000      73.50400000 
H      40.40000000      36.64500000      73.22000000 
H      41.94700000      36.83000000      75.27200000 
H      42.13700000      39.79800000      74.46800000 
H      41.46700000      39.19800000      75.96300000 
H      43.87100000      37.20500000      73.78500000 
H      42.61900000      36.52100000      72.90600000 
H      42.91800000      38.14400000      72.67100000 
H      43.67300000      39.96600000      76.32900000 
H      43.78500000      38.21100000      76.47600000 
H      44.35000000      39.02000000      75.07800000 
N      38.95800000      35.89800000      74.89400000 
C      37.71100000      35.98200000      75.87100000 
C      38.45000000      34.03400000      76.61600000 
O      38.56500000      34.14800000      76.44600000 
C      36.23400000      35.82700000      75.62900000 
C      35.84200000      34.72100000      74.74300000 
C      35.03500000      33.55900000      75.60700000 
C      35.66500000      34.34800000      73.40900000 
N      34.62100000      32.83100000      74.98000000 
C      34.97000000      33.02600000      73.35100000 
C      36.01300000      34.55500000      72.36400000 
C      34.64400000      32.32000000      72.41400000 
C      35.84600000      34.21200000      71.18500000 
C      35.02900000      32.92200000      70.98700000 
H      39.03300000      35.68300000      74.60800000 
H      37.78400000      36.81900000      76.85500000 
H      35.70100000      36.27200000      76.23600000 
H      36.30700000      36.77600000      74.60100000 
H      34.90300000      33.66100000      76.68800000 
H      34.04900000      31.82300000      75.06600000 
H      36.64200000      35.74800000      72.24300000 
H      34.09500000      31.44700000      72.28700000 
H      36.08100000      34.50800000      70.13100000 
H      34.86700000      32.40200000      70.20700000 
N      37.30100000      34.82300000      77.79200000 
C      37.55500000      32.91200000      78.51300000 
C      38.26700000      33.45300000      80.18000000 
O      38.25100000      34.29600000      80.43400000 
H      36.95800000      34.98800000      78.20000000 
H      36.42500000      32.75800000      78.68700000 
H      38.02200000      32.52400000      78.11300000 
H      42.84411172      46.55081562      69.68582738 
H      53.63977437      43.40490352      74.57673491 
H      53.18726859      52.26180374      77.53395012 
H      55.00023767      49.85002325      77.50883081 
H      53.49040757      46.50441982      80.42839819 
H      43.62801722      50.97252860      71.36875778 
H      51.71748449      39.58791632      72.85564471 
H      50.37803960      33.44437265      83.71562475 
H      40.77306587      38.63624018      72.40055529 
H      38.67265425      32.77582298      80.79390220 
