420
Properties=species:S:1:pos:R:3 pbc="F F F"
N      35.47700000      39.61200000      45.07000000 
C      35.14800000      38.04500000      45.77500000 
C      33.90300000      37.74600000      45.00400000 
O      33.70400000      36.74000000      44.66200000 
C      35.65200000      37.80100000      46.97100000 
C      36.71000000      37.82900000      47.65100000 
C      37.87700000      37.01700000      47.24400000 
C      36.89600000      38.45900000      48.88500000 
C      38.73800000      37.10400000      47.69400000 
C      38.26500000      38.11700000      49.06700000 
C      39.32600000      37.40300000      48.68000000 
H      35.70600000      40.25400000      46.14000000 
H      35.90700000      37.51600000      45.09800000 
H      34.68400000      38.78200000      47.72700000 
H      34.73900000      36.90500000      47.35100000 
H      37.44100000      36.48600000      45.91700000 
H      36.39400000      38.89100000      49.25200000 
H      39.71500000      36.21800000      47.01200000 
H      38.60200000      38.81000000      50.41100000 
H      40.23000000      37.39000000      49.14700000 
N      32.95200000      38.71700000      45.34400000 
C      31.41000000      38.32300000      45.10600000 
C      31.47000000      38.04300000      43.45100000 
O      30.72700000      37.28700000      43.05800000 
C      30.71100000      39.57000000      45.21500000 
C      29.18800000      39.22900000      45.77900000 
C      29.15400000      38.29700000      46.86100000 
C      28.63200000      40.68500000      45.77200000 
H      33.14600000      39.45200000      45.92400000 
H      31.15200000      37.47000000      45.41900000 
H      31.11800000      40.05200000      46.34300000 
H      30.69300000      40.26400000      44.78200000 
H      28.84500000      38.59300000      44.92700000 
H      28.08400000      38.23100000      47.30900000 
H      29.62400000      37.41600000      46.93100000 
H      29.68200000      39.07600000      47.93500000 
H      27.24300000      40.22800000      46.21500000 
H      28.87500000      41.06800000      46.70900000 
H      28.46800000      41.04100000      44.99300000 
N      33.98600000      36.92400000      41.54800000 
C      34.63300000      36.02600000      41.09900000 
C      33.71000000      34.64600000      41.24800000 
O      33.54400000      33.92800000      40.85700000 
C      35.86900000      35.67900000      42.00300000 
H      34.44800000      37.77400000      42.27000000 
H      34.79600000      35.80500000      40.24300000 
H      36.33500000      34.68800000      41.75800000 
H      36.57400000      36.40700000      41.72400000 
H      35.60500000      35.71800000      43.11700000 
N      32.82600000      34.73800000      42.52500000 
C      31.86100000      33.88600000      42.90000000 
C      31.03100000      33.46600000      41.97100000 
O      30.40800000      32.79600000      41.56500000 
C      31.40400000      33.90300000      44.31400000 
H      33.00700000      35.73100000      43.19300000 
H      32.44000000      32.78000000      42.88600000 
H      30.65500000      33.33000000      44.50500000 
H      32.09200000      34.15700000      44.96000000 
H      30.75700000      35.14900000      44.22400000 
N      30.36200000      34.86500000      41.24300000 
C      29.36700000      34.86200000      40.14600000 
C      30.03800000      34.10700000      39.16700000 
O      29.27100000      33.55700000      38.30500000 
C      28.80400000      36.25200000      40.02000000 
C      28.21800000      36.84100000      41.42300000 
C      28.32700000      36.25000000      38.65000000 
C      26.74800000      36.18100000      41.05500000 
H      30.92600000      35.79500000      41.72600000 
H      28.60300000      34.27100000      40.52400000 
H      30.04300000      37.01900000      40.07600000 
H      28.49000000      36.66200000      41.94600000 
H      27.97700000      37.88800000      41.03100000 
H      27.98500000      37.61700000      38.55000000 
H      29.12100000      36.35200000      37.81200000 
H      27.55900000      35.84300000      38.53000000 
H      26.10900000      36.51800000      41.98800000 
H      26.17700000      36.31700000      40.25500000 
H      26.78200000      35.02100000      41.18800000 
N      32.44100000      31.80300000      39.17500000 
C      32.42800000      30.43900000      39.05200000 
C      31.25000000      29.91500000      39.00300000 
O      30.79000000      28.76200000      38.45300000 
C      33.02900000      30.32800000      40.34700000 
C      34.68800000      30.76500000      40.14500000 
C      35.35100000      30.70600000      41.61600000 
C      35.48400000      29.55100000      39.23000000 
H      32.56100000      32.69200000      39.51800000 
H      32.88700000      30.09000000      38.26500000 
H      32.73000000      30.90100000      41.18700000 
H      33.04500000      29.41400000      40.56200000 
H      34.60900000      31.58800000      39.81300000 
H      36.21500000      30.88000000      41.50500000 
H      34.79000000      31.38800000      42.24000000 
H      35.14700000      29.63000000      42.05000000 
H      36.32200000      29.91100000      39.30200000 
H      35.19700000      28.66300000      39.70300000 
H      34.92800000      29.75200000      38.26100000 
N      29.78500000      30.47500000      39.83800000 
C      28.79100000      29.74300000      39.62100000 
C      28.41300000      29.71900000      38.18100000 
O      27.78400000      28.73400000      37.97000000 
C      27.84800000      30.76700000      40.62400000 
C      27.19300000      29.96000000      41.73500000 
C      27.02700000      28.63700000      41.66600000 
C      28.57000000      30.74900000      43.00400000 
H      30.25800000      31.39800000      40.35100000 
H      28.85000000      28.95100000      40.11500000 
H      27.92600000      31.66600000      40.50500000 
H      26.61500000      30.59600000      39.76300000 
H      26.38600000      30.55600000      42.11500000 
H      26.49700000      28.26100000      42.74500000 
H      26.53500000      28.32700000      40.99500000 
H      28.06200000      28.06000000      41.84300000 
H      28.11000000      30.08600000      43.78400000 
H      29.24400000      30.05200000      42.60800000 
H      28.38300000      31.40900000      43.02000000 
N      30.02100000      27.03700000      36.57900000 
C      29.61600000      25.40600000      37.15800000 
C      27.95800000      25.22600000      36.66600000 
O      27.63000000      24.07400000      36.28300000 
C      29.60700000      25.12900000      38.55500000 
C      30.99000000      25.34800000      38.95100000 
C      32.26500000      24.75300000      38.40800000 
C      31.33000000      26.32500000      40.08700000 
C      33.30100000      24.64300000      38.67600000 
C      32.97500000      26.37500000      40.57900000 
C      33.93100000      25.44600000      39.96900000 
H      30.13200000      27.40300000      37.25800000 
H      29.96200000      24.73400000      36.61400000 
H      29.03300000      26.27400000      39.11000000 
H      29.26200000      24.52000000      38.85100000 
H      31.68600000      23.94600000      37.45000000 
H      30.77800000      26.74400000      40.47500000 
H      34.01200000      24.10300000      38.26800000 
H      33.00700000      26.64600000      41.05500000 
H      34.59600000      25.47200000      40.00800000 
N      19.68100000      27.71800000      42.80800000 
C      20.30900000      28.39300000      43.36700000 
C      21.15300000      29.63900000      42.78700000 
O      21.54700000      30.40400000      43.54500000 
C      21.68400000      26.98800000      42.78300000 
O      21.70100000      26.27300000      43.63900000 
H      19.22100000      27.15800000      42.39300000 
H      20.68600000      28.34300000      44.43100000 
H      21.69600000      27.27300000      41.93400000 
H      22.60800000      27.53900000      43.18100000 
H      20.52300000      25.47500000      42.90000000 
N      19.02500000      32.03200000      44.87900000 
C      19.66900000      32.15700000      45.94000000 
C      20.73500000      33.14200000      46.51200000 
O      21.03700000      33.66900000      46.98200000 
C      19.75800000      30.79300000      46.52600000 
C      20.82900000      30.74100000      48.10600000 
C      19.83300000      31.35100000      49.23100000 
C      20.69300000      29.16300000      48.44300000 
H      18.96700000      31.27700000      44.36800000 
H      18.80500000      32.67600000      46.86900000 
H      18.85900000      30.22800000      46.71200000 
H      20.49500000      30.13400000      46.01400000 
H      21.23400000      31.15600000      47.95800000 
H      20.04000000      31.31200000      49.99500000 
H      19.50200000      32.51800000      48.81100000 
H      18.58500000      31.02900000      49.16300000 
H      21.20800000      29.28500000      49.44600000 
H      19.84000000      28.74200000      48.56400000 
H      21.23500000      28.77300000      47.79100000 
N      21.77700000      32.56200000      45.23200000 
C      22.94200000      33.67500000      45.39600000 
C      22.72800000      34.83200000      45.36500000 
O      23.24600000      35.74600000      45.90500000 
C      24.04600000      32.91700000      44.53500000 
O      23.63100000      33.31800000      42.88800000 
C      24.34500000      31.56900000      44.72100000 
H      21.63700000      31.97500000      44.64200000 
H      23.49600000      33.38300000      46.46600000 
H      24.97700000      33.76500000      44.59000000 
H      22.54500000      33.01800000      42.86700000 
H      25.21100000      31.39600000      43.88700000 
H      24.86200000      31.50800000      45.68100000 
H      23.80200000      31.05400000      44.46100000 
N      28.87600000      36.96200000      51.52400000 
C      29.77000000      36.68400000      50.86200000 
C      30.19300000      34.76400000      51.02800000 
O      30.25500000      34.27900000      50.32500000 
C      31.38900000      37.26400000      50.85900000 
C      32.27200000      36.64400000      50.06400000 
C      32.20100000      36.57500000      48.72800000 
C      33.69000000      37.46400000      50.60700000 
H      29.09100000      37.95800000      52.20300000 
H      29.58700000      36.43800000      49.62800000 
H      31.01800000      38.19500000      50.61800000 
H      31.40800000      37.29200000      51.94100000 
H      32.47800000      35.71200000      50.45000000 
H      32.92700000      36.22800000      48.11300000 
H      31.16600000      35.97300000      48.36300000 
H      31.91500000      37.57300000      48.33000000 
H      34.55300000      36.88100000      49.94200000 
H      33.48000000      38.50300000      49.91000000 
H      33.83700000      37.48300000      51.45500000 
N      30.15100000      34.72600000      52.45700000 
C      30.54300000      33.28300000      52.71100000 
C      29.45600000      32.42900000      52.18700000 
O      30.02300000      31.25200000      51.68400000 
C      30.85900000      33.37400000      54.24300000 
C      32.46400000      33.66200000      54.64600000 
C      32.57100000      35.12500000      54.47900000 
C      32.63600000      33.54300000      55.87500000 
H      30.02100000      35.35900000      53.05800000 
H      31.61400000      33.10300000      52.06300000 
H      30.32000000      33.74700000      54.82500000 
H      30.86700000      32.15500000      54.46400000 
H      33.08800000      33.03400000      53.76400000 
H      33.58000000      35.36300000      54.57800000 
H      32.51400000      35.39300000      53.16700000 
H      31.95900000      35.61700000      54.80700000 
H      33.77300000      33.48800000      56.20800000 
H      32.12200000      33.74100000      56.59400000 
H      32.62400000      32.05700000      56.11800000 
N      28.48600000      32.43700000      52.42500000 
C      27.38300000      31.75300000      52.01900000 
C      27.41100000      31.55100000      50.58600000 
O      27.33900000      30.30700000      49.92100000 
C      25.90100000      32.05000000      52.31000000 
C      26.60400000      32.94500000      53.72500000 
C      27.65400000      33.68800000      53.52200000 
H      27.55600000      30.59600000      52.36900000 
H      25.68700000      32.79400000      51.73800000 
H      25.25200000      31.30400000      52.59200000 
H      25.60800000      33.62100000      53.98600000 
H      26.55000000      32.22200000      54.51000000 
H      27.56200000      34.34700000      52.83900000 
H      28.21900000      33.75400000      54.12000000 
N      27.60900000      32.46700000      49.73800000 
C      27.79200000      32.39900000      48.42200000 
C      29.06200000      31.60100000      47.61300000 
O      28.93200000      31.10500000      47.33100000 
C      27.97000000      34.08400000      47.66700000 
C      26.34300000      34.62600000      48.00300000 
C      28.19800000      33.43500000      46.28800000 
C      26.42000000      35.80900000      47.65300000 
H      27.69600000      33.47100000      50.24300000 
H      26.87600000      31.93200000      47.98300000 
H      28.41300000      34.32800000      48.23100000 
H      25.76000000      34.08500000      47.38000000 
H      26.10200000      34.32200000      48.86600000 
H      28.09000000      34.97100000      45.77300000 
H      29.07000000      33.45500000      46.15200000 
H      27.45900000      33.27000000      45.77700000 
H      25.49400000      36.44000000      47.86100000 
H      27.14500000      36.47700000      48.35700000 
H      26.78000000      36.22000000      46.63100000 
N      30.01900000      31.75000000      48.58900000 
C      31.16600000      31.13300000      48.54000000 
C      31.10500000      29.25100000      48.55800000 
O      31.40900000      28.98100000      47.97700000 
C      32.44600000      31.65800000      49.11100000 
C      33.59600000      32.04300000      48.13800000 
C      33.90800000      31.54900000      47.38800000 
C      33.81900000      33.65300000      48.78000000 
C      35.12800000      31.89100000      46.41000000 
C      35.20900000      33.92200000      47.53300000 
C      35.37900000      33.21800000      46.78700000 
O      36.54900000      33.62200000      45.72300000 
H      30.03600000      32.63200000      49.46800000 
H      31.53300000      31.13900000      47.16400000 
H      32.09300000      32.43400000      49.94800000 
H      32.87100000      30.71100000      49.81100000 
H      33.63300000      30.34200000      47.01900000 
H      33.66200000      33.94200000      49.17500000 
H      35.46600000      31.27400000      45.53600000 
H      35.37800000      34.91400000      47.88700000 
H      36.87000000      34.48800000      46.08900000 
N      30.13400000      29.54500000      49.77800000 
C      29.99100000      27.72600000      49.80500000 
C      29.19300000      27.68400000      48.96200000 
O      29.43900000      26.07400000      48.25300000 
C      29.22100000      27.54400000      51.21800000 
H      30.05900000      29.97200000      50.20200000 
H      30.76400000      27.35700000      49.98500000 
H      28.99400000      26.88900000      51.42300000 
H      29.76800000      28.20900000      52.09200000 
H      28.18400000      28.53100000      51.20000000 
N      28.32200000      27.94800000      48.31100000 
C      27.31200000      27.62000000      47.29200000 
C      28.33600000      27.46300000      45.87900000 
O      28.06000000      26.55700000      45.20200000 
C      26.17800000      28.55100000      46.79700000 
C      25.59100000      28.22400000      45.74000000 
C      25.25300000      28.65700000      48.33600000 
H      27.96300000      29.03700000      48.73300000 
H      26.98800000      26.78800000      47.32900000 
H      26.73400000      29.71600000      46.90700000 
H      24.66000000      28.93400000      45.49800000 
H      26.24400000      28.55200000      44.70500000 
H      25.24500000      27.32000000      45.56900000 
H      24.54900000      29.13200000      47.93100000 
H      24.78400000      27.60400000      48.06500000 
H      25.62500000      28.74600000      48.82200000 
N      29.35900000      28.26900000      45.70800000 
C      30.05800000      28.36100000      44.74000000 
C      30.85400000      26.67800000      44.61000000 
O      30.92700000      26.29700000      43.81000000 
C      31.28800000      29.39300000      44.77200000 
O      30.68500000      30.67300000      44.78400000 
C      32.06000000      29.41200000      43.68800000 
H      29.28300000      29.25900000      46.55900000 
H      29.68300000      28.36200000      43.65500000 
H      31.69900000      29.25900000      45.56600000 
H      30.04800000      30.77900000      45.58200000 
H      32.79100000      30.10700000      43.56600000 
H      32.70500000      28.38700000      43.50600000 
H      31.59700000      29.41900000      42.67700000 
N      31.28500000      26.70200000      46.02400000 
C      32.40800000      25.32300000      45.92900000 
C      31.17600000      24.17900000      45.75400000 
O      31.63500000      23.16600000      45.04100000 
C      32.75200000      25.31200000      47.23900000 
C      33.40600000      23.79600000      47.47600000 
C      34.01900000      26.47600000      47.50400000 
H      31.33000000      27.23800000      46.61600000 
H      32.85200000      25.26800000      45.19700000 
H      32.11100000      25.48500000      48.09500000 
H      34.08300000      23.96300000      48.49100000 
H      32.83800000      23.21200000      47.60400000 
H      34.19600000      23.74800000      46.72500000 
H      34.41600000      26.38400000      48.27800000 
H      34.68600000      26.19100000      46.53800000 
H      33.42700000      27.45800000      47.25400000 
N      29.95900000      24.38900000      46.51100000 
C      29.07200000      23.19700000      46.18800000 
C      28.71600000      22.96700000      44.96400000 
O      28.75400000      21.79200000      44.30100000 
C      27.83700000      23.73000000      46.82000000 
O      26.67300000      22.45500000      46.75700000 
H      29.79200000      25.01600000      46.88000000 
H      29.47300000      22.23500000      46.66500000 
H      28.10800000      23.77200000      48.18700000 
H      27.48700000      24.53000000      46.63700000 
H      26.13300000      22.80000000      47.08500000 
N      28.46300000      24.16300000      43.84700000 
C      27.97300000      23.75400000      42.53600000 
C      29.17900000      23.42800000      42.11000000 
O      29.08900000      22.52300000      40.88300000 
C      27.71900000      25.49100000      42.22000000 
C      26.83700000      25.04400000      40.80200000 
S      25.00000000      24.47500000      41.48100000 
C      24.74900000      25.26500000      43.07900000 
H      28.52100000      24.96900000      44.57200000 
H      27.39700000      23.30300000      42.56600000 
H      27.25200000      25.86400000      42.82400000 
H      28.61300000      25.80000000      41.79300000 
H      26.61000000      26.10900000      40.50500000 
H      27.13800000      24.48700000      40.17400000 
H      23.70300000      25.37300000      43.12200000 
H      25.27700000      25.10900000      43.73200000 
H      25.07300000      26.68100000      42.63900000 
N      30.65900000      23.54800000      41.97200000 
C      31.41300000      23.07100000      41.57300000 
C      31.82100000      22.07500000      41.69000000 
O      32.02000000      20.99600000      40.87100000 
H      30.55200000      24.56100000      43.01400000 
H      31.52500000      23.42300000      40.47700000 
H      32.58700000      23.77100000      41.97600000 
N      31.54400000      21.07600000      42.78000000 
C      31.55500000      19.98700000      43.13600000 
C      30.51700000      18.84000000      42.27300000 
O      30.66600000      18.33100000      41.96700000 
C      31.33700000      19.60300000      44.69600000 
C      32.61900000      18.63100000      45.08200000 
C      33.76500000      19.69500000      45.23300000 
C      32.24200000      18.10700000      46.65100000 
H      31.21900000      22.03900000      43.79900000 
H      32.39200000      19.49000000      42.90000000 
H      31.35100000      20.39700000      45.22800000 
H      30.45400000      19.06500000      44.92300000 
H      32.56500000      17.91300000      44.57800000 
H      34.75200000      18.82900000      45.58300000 
H      34.06000000      19.84700000      44.12800000 
H      33.78400000      20.31300000      45.78600000 
H      33.05600000      17.71200000      47.02900000 
H      32.12600000      19.12300000      47.31800000 
H      31.34500000      17.73700000      46.66400000 
N      29.28100000      19.75900000      42.40000000 
C      28.29300000      19.02700000      41.54300000 
C      28.69100000      19.17100000      40.16500000 
O      28.47800000      17.80700000      39.38500000 
C      26.98700000      19.85500000      41.90300000 
C      25.74500000      18.96300000      41.92900000 
C      25.60000000      17.95900000      42.51100000 
C      24.51300000      18.96300000      41.61100000 
N      24.54100000      16.86400000      43.05200000 
C      23.28800000      18.17100000      41.82400000 
C      23.65100000      20.01800000      40.46400000 
C      22.48900000      17.87200000      41.72300000 
C      22.66600000      19.84800000      40.33300000 
C      21.55500000      18.61100000      40.81900000 
H      29.14500000      20.66700000      42.87300000 
H      28.15700000      18.13500000      41.91900000 
H      26.94500000      20.49300000      42.54100000 
H      26.66600000      20.47600000      40.85800000 
H      26.70300000      17.20100000      43.50200000 
H      24.25100000      16.61600000      43.15200000 
H      24.43600000      20.80300000      40.20100000 
H      21.69400000      17.02100000      42.14900000 
H      22.02400000      20.50200000      39.67000000 
H      20.73500000      18.69800000      40.64100000 
H      36.18059125      39.54880664      44.51235678 
H      32.13324010      38.53243157      42.88481160 
H      33.64157179      37.41203156      40.87480285 
H      31.03532739      34.03657520      39.18645332 
H      32.95399423      32.15825415      38.52643897 
H      28.69597929      30.46428958      37.57728967 
H      30.75704020      26.99829094      36.06252500 
H      27.33840519      26.01018452      36.70001342 
H      18.82680619      27.81111650      43.07573541 
H      21.31317876      29.71976865      41.80322198 
H      18.15329851      32.19156200      45.03608750 
H      21.98459078      35.18798410      44.79876855 
H      28.15887213      37.12807431      51.00617094 
H      29.04162700      20.04737106      39.83479632 
