405
Properties=species:S:1:pos:R:3 pbc="F F F"
N      12.21200000      12.02600000      27.41700000 
C      12.40600000      12.64100000      26.12800000 
C      13.86800000      12.71200000      25.78700000 
O      14.23100000      12.75800000      24.59300000 
C      11.76900000      14.01600000      26.09900000 
H      11.78600000      12.54800000      28.15700000 
H      11.96600000      12.01700000      25.36800000 
H      11.89800000      14.45700000      25.12300000 
H      10.71200000      13.92200000      26.30000000 
H      12.21500000      14.65500000      26.84500000 
N      14.98400000      10.29800000      23.16600000 
C      14.78400000      10.58700000      21.76900000 
C      15.97000000      11.35900000      21.26100000 
O      16.43100000      11.17300000      20.12300000 
C      13.50100000      11.36800000      21.57100000 
H      14.49100000      10.83400000      23.84500000 
H      14.76200000       9.66700000      21.21300000 
H      13.35600000      11.58000000      20.52400000 
H      12.66800000      10.78100000      21.92800000 
H      13.53700000      12.29400000      22.12100000 
N      16.50600000      12.25100000      22.09000000 
C      17.64200000      13.02700000      21.67000000 
C      18.79900000      12.11500000      21.38600000 
O      19.57400000      12.34900000      20.44400000 
C      18.07200000      14.08400000      22.69100000 
C      16.89100000      14.78100000      23.35100000 
C      18.98700000      15.08000000      21.99400000 
C      15.97700000      15.51000000      22.38700000 
H      16.15700000      12.34200000      23.01200000 
H      17.40600000      13.50500000      20.73500000 
H      18.62000000      13.58000000      23.47300000 
H      16.31400000      14.06700000      23.91100000 
H      17.29600000      15.48100000      24.07200000 
H      19.26900000      15.86800000      22.67700000 
H      19.88300000      14.60100000      21.62800000 
H      18.48100000      15.52700000      21.15000000 
H      15.11300000      15.90000000      22.90800000 
H      16.48200000      16.33600000      21.90700000 
H      15.62500000      14.84000000      21.62000000 
N      18.99800000      11.13400000      17.93300000 
C      19.34500000      12.16200000      16.99000000 
C      20.79000000      12.10600000      16.59400000 
O      21.16200000      12.69300000      15.56600000 
C      19.06000000      13.51600000      17.61100000 
H      18.77300000      11.41000000      18.86200000 
H      18.77600000      12.02800000      16.08800000 
H      19.25200000      14.30300000      16.90200000 
H      18.02700000      13.54700000      17.91000000 
H      19.67000000      13.65700000      18.48500000 
N      21.52900000       8.76700000      13.58000000 
C      21.27000000       8.74800000      12.16500000 
C      22.35600000       9.43000000      11.37500000 
O      22.38000000       9.32800000      10.13800000 
C      19.94900000       9.42500000      11.86700000 
C      18.82800000       8.67900000      12.51500000 
O      18.66300000       7.46500000      12.30900000 
N      18.03800000       9.38700000      13.31500000 
H      21.15200000       9.49700000      14.13900000 
H      21.23500000       7.72500000      11.83900000 
H      19.97300000      10.44400000      12.20500000 
H      19.78900000       9.42100000      10.80000000 
H      17.28000000       8.94700000      13.78400000 
H      18.21800000      10.34600000      13.50300000 
N      23.21900000      10.16000000      12.06600000 
C      24.31500000      10.86700000      11.47500000 
C      25.53500000       9.98300000      11.41300000 
O      25.57600000       8.88200000      11.97700000 
C      24.53000000      12.17800000      12.22600000 
C      24.76100000      12.06400000      13.72700000 
C      26.18500000      11.66300000      14.07400000 
C      24.42800000      13.40200000      14.36300000 
H      23.15000000      10.14800000      13.05200000 
H      24.04700000      11.10200000      10.45800000 
H      25.35000000      12.72400000      11.78500000 
H      23.63000000      12.75100000      12.06100000 
H      24.09400000      11.32600000      14.14700000 
H      26.29300000      11.61300000      15.14800000 
H      26.44600000      10.69800000      13.67100000 
H      26.87400000      12.39600000      13.68800000 
H      24.67200000      13.38600000      15.41200000 
H      25.01600000      14.17700000      13.90000000 
H      23.37500000      13.62200000      14.26200000 
N      30.11300000      13.32800000      10.54500000 
C      29.26900000      14.43400000      10.91900000 
C      29.56200000      14.84900000      12.33200000 
O      29.62000000      16.05100000      12.65100000 
C      27.81200000      14.01500000      10.76500000 
C      26.83900000      15.16400000      10.88100000 
C      26.63600000      15.70700000      12.27600000 
O      27.00300000      14.99700000      13.25100000 
O      26.06300000      16.83200000      12.37000000 
H      29.67900000      12.47900000      10.24800000 
H      29.47900000      15.28900000      10.29800000 
H      27.71800000      13.56100000       9.79000000 
H      27.59400000      13.25900000      11.49900000 
H      27.12900000      15.98100000      10.23600000 
H      25.86600000      14.83000000      10.54200000 
N      15.43200000      20.64000000      23.85600000 
C      14.82500000      20.10400000      22.65700000 
C      14.83600000      21.14300000      21.56500000 
O      15.08400000      20.84200000      20.38500000 
C      13.39800000      19.68200000      22.95500000 
H      14.91600000      20.65000000      24.71200000 
H      15.40200000      19.27300000      22.29200000 
H      12.92200000      19.34600000      22.05000000 
H      13.39900000      18.87200000      23.67000000 
H      12.84600000      20.51100000      23.36700000 
N      18.42500000      21.80200000      20.29900000 
C      18.87700000      20.73300000      19.45000000 
C      18.50200000      21.02300000      18.02600000 
O      19.30800000      20.90400000      17.08800000 
C      18.21400000      19.42900000      19.88600000 
O      18.64200000      19.10000000      21.20700000 
C      18.59700000      18.29200000      18.98100000 
H      17.89800000      21.58300000      21.11800000 
H      19.94600000      20.62400000      19.49100000 
H      17.14600000      19.57500000      19.88200000 
H      18.17100000      19.59700000      21.87900000 
H      18.19900000      17.37100000      19.37300000 
H      18.20100000      18.43700000      17.98900000 
H      19.67300000      18.21100000      18.91500000 
N      17.23600000      21.35800000      17.81400000 
C      16.74500000      21.50600000      16.46900000 
C      17.53100000      22.55600000      15.74500000 
O      17.83100000      22.41500000      14.54600000 
C      15.27600000      21.88200000      16.49400000 
H      16.62300000      21.52800000      18.57900000 
H      16.89300000      20.58900000      15.92600000 
H      14.89400000      21.93800000      15.48800000 
H      14.71700000      21.13000000      17.03000000 
H      15.14400000      22.83200000      16.98900000 
N      20.88900000      21.30800000      14.49900000 
C      20.72300000      20.29600000      13.49400000 
C      20.28200000      20.88400000      12.18700000 
O      20.79900000      20.47700000      11.13100000 
C      19.70000000      19.26700000      13.93300000 
C      20.12000000      18.45800000      15.14600000 
C      18.97700000      17.52300000      15.50600000 
C      21.39100000      17.66800000      14.88700000 
H      20.31800000      21.28400000      15.31700000 
H      21.66900000      19.83000000      13.29200000 
H      18.77100000      19.77900000      14.14100000 
H      19.52600000      18.59400000      13.10500000 
H      20.28500000      19.13100000      15.97100000 
H      19.21800000      16.93100000      16.37800000 
H      18.07600000      18.08500000      15.71300000 
H      18.77600000      16.85100000      14.68200000 
H      21.66600000      17.10300000      15.76800000 
H      21.24100000      16.97500000      14.06800000 
H      22.22100000      18.31300000      14.64000000 
N      19.30500000      21.78100000      12.18000000 
C      18.80700000      22.24800000      10.91200000 
C      19.70600000      23.28200000      10.29900000 
O      19.50700000      23.62600000       9.12500000 
C      17.39100000      22.78200000      10.99200000 
C      17.26900000      24.04800000      11.81400000 
C      15.93500000      24.71800000      11.55100000 
N      15.71500000      25.83400000      12.45500000 
C      15.36900000      25.69800000      13.72100000 
N      15.11700000      24.49900000      14.22700000 
N      15.27100000      26.75800000      14.50800000 
H      18.87200000      22.06700000      13.03600000 
H      18.82300000      21.41900000      10.22600000 
H      17.07300000      22.97400000       9.97900000 
H      16.75400000      22.01000000      11.39800000 
H      17.37400000      23.81600000      12.85900000 
H      18.05500000      24.74500000      11.56100000 
H      15.90900000      25.11300000      10.55200000 
H      15.12000000      24.01500000      11.64100000 
H      15.96700000      26.74000000      12.13800000 
H      15.21900000      23.67200000      13.69100000 
H      14.78500000      24.40900000      15.15500000 
H      15.43000000      27.66600000      14.14100000 
H      15.34300000      26.64100000      15.49900000 
N      23.48800000      20.15300000      10.52400000 
C      23.26600000      18.75600000      10.27300000 
C      22.55200000      18.53400000       8.96900000 
O      22.86400000      17.58100000       8.23400000 
H      22.96400000      20.58300000      11.24600000 
H      24.19700000      18.21900000      10.22700000 
H      22.66600000      18.35800000      11.07200000 
N      21.55900000      19.36800000       8.69200000 
C      20.87500000      19.41200000       7.41900000 
C      20.28100000      18.07300000       7.05600000 
O      20.34600000      17.62900000       5.90300000 
C      21.75300000      19.93800000       6.30200000 
C      22.34000000      21.30900000       6.58500000 
C      23.27000000      21.69800000       5.44800000 
C      21.26500000      22.36100000       6.76500000 
H      21.29700000      20.02500000       9.39500000 
H      20.03900000      20.08000000       7.56000000 
H      22.54900000      19.23100000       6.12700000 
H      21.15900000      19.98600000       5.40200000 
H      22.92000000      21.25000000       7.49000000 
H      23.73700000      22.65400000       5.64700000 
H      24.04600000      20.95700000       5.31000000 
H      22.71000000      21.78100000       4.52400000 
H      21.71300000      23.32900000       6.94000000 
H      20.65100000      22.42600000       5.87300000 
H      20.62500000      22.15400000       7.60600000 
N      19.63100000      17.42900000       8.02900000 
C      19.06800000      16.12500000       7.82700000 
C      17.59500000      16.11200000       8.08700000 
O      17.08200000      16.75400000       9.02000000 
C      19.72200000      15.11600000       8.75800000 
C      21.16200000      14.90000000       8.34000000 
C      21.92300000      14.19600000       9.41200000 
O      21.59900000      13.06100000       9.80800000 
N      22.94600000      14.87100000       9.93000000 
H      19.61200000      17.81500000       8.94300000 
H      19.25300000      15.85000000       6.80500000 
H      19.66600000      15.50300000       9.76600000 
H      19.18600000      14.18400000       8.73100000 
H      21.18600000      14.29200000       7.44700000 
H      21.62400000      15.84400000       8.12600000 
H      23.18700000      15.77200000       9.58400000 
H      23.49100000      14.47000000      10.65800000 
N      16.87500000      15.28400000       7.33800000 
C      15.45200000      15.13300000       7.53100000 
C      15.17000000      14.65300000       8.92800000 
O      14.12900000      14.97300000       9.52800000 
C      14.91300000      14.17900000       6.46900000 
C      13.43800000      14.39500000       6.16500000 
C      13.07000000      13.55400000       4.96700000 
O      12.78300000      12.34000000       5.17600000 
O      13.13500000      14.10400000       3.83000000 
H      17.30400000      14.81100000       6.57900000 
H      14.97100000      16.09100000       7.43800000 
H      15.47000000      14.36200000       5.56100000 
H      15.09100000      13.15500000       6.76100000 
H      12.83000000      14.12000000       7.01100000 
H      13.27600000      15.43500000       5.92900000 
N      16.09000000      13.88400000       9.50600000 
C      15.90800000      13.38100000      10.84000000 
C      15.81100000      14.48900000      11.84800000 
O      15.31100000      14.23900000      12.96100000 
C      17.02800000      12.42900000      11.23700000 
C      18.39600000      13.09300000      11.22200000 
S      19.36700000      12.87700000      12.78600000 
C      18.32000000      13.85600000      13.95100000 
H      16.86900000      13.57800000       8.97300000 
H      14.97400000      12.85300000      10.89500000 
H      16.78600000      12.05400000      12.21900000 
H      17.01000000      11.58800000      10.56200000 
H      19.03000000      12.69000000      10.45500000 
H      18.31600000      14.15200000      11.05900000 
H      18.88700000      13.94600000      14.85300000 
H      18.13800000      14.82600000      13.52700000 
H      17.39200000      13.34700000      14.13100000 
N      16.24300000      15.70400000      11.56000000 
C      16.06900000      16.76000000      12.53300000 
C      14.60300000      16.89700000      12.86000000 
O      14.20900000      17.11900000      14.01700000 
C      16.63500000      18.05100000      11.97500000 
H      16.62000000      15.93500000      10.66300000 
H      16.56300000      16.49500000      13.44900000 
H      16.55800000      18.83900000      12.70900000 
H      17.67500000      17.90700000      11.72800000 
H      16.10800000      18.33800000      11.08000000 
N      13.75700000      16.78200000      11.83900000 
C      12.33800000      16.86700000      12.05100000 
C      11.79500000      15.60500000      12.64900000 
O      10.82200000      15.62900000      13.42400000 
H      14.09100000      16.52300000      10.93800000 
H      12.10400000      17.67700000      12.71700000 
H      11.85100000      17.04600000      11.10600000 
N      12.40600000      14.46700000      12.34100000 
C      12.04700000      13.24200000      13.01400000 
C      12.13400000      13.45200000      14.49500000 
O      11.23900000      13.05500000      15.25500000 
C      12.97600000      12.11200000      12.59800000 
C      12.71000000      10.83300000      13.37500000 
C      13.48500000      10.75800000      14.65700000 
O      14.68900000      11.06700000      14.70300000 
N      12.83200000      10.30400000      15.72400000 
H      13.15500000      14.47300000      11.69100000 
H      11.02400000      12.98200000      12.80200000 
H      12.83700000      11.93700000      11.54200000 
H      13.99200000      12.41700000      12.76300000 
H      11.65700000      10.70500000      13.56300000 
H      13.04000000       9.99000000      12.78300000 
H      11.85700000      10.13500000      15.69800000 
H      13.30300000      10.21600000      16.59400000 
N      13.22500000      14.04900000      14.96300000 
C      13.34900000      14.21200000      16.38800000 
C      12.23000000      15.08500000      16.87500000 
O      11.57700000      14.81600000      17.90300000 
C      14.68600000      14.83100000      16.75400000 
C      14.81200000      15.05500000      18.25400000 
C      14.67000000      13.74500000      19.00700000 
C      16.12700000      15.74000000      18.57000000 
H      13.97500000      14.29300000      14.35200000 
H      13.22700000      13.26000000      16.86800000 
H      15.47000000      14.16300000      16.42300000 
H      14.79600000      15.76500000      16.22500000 
H      14.02000000      15.71600000      18.56700000 
H      14.90100000      13.87200000      20.05200000 
H      13.66400000      13.36100000      18.94100000 
H      15.34700000      13.00200000      18.61000000 
H      16.23100000      15.89100000      19.63300000 
H      16.95800000      15.14100000      18.23600000 
H      16.18800000      16.70200000      18.08000000 
N      11.98200000      16.17900000      16.17400000 
C      10.95900000      17.10100000      16.59400000 
C       9.64500000      16.40900000      16.78400000 
O       8.87900000      16.79800000      17.69300000 
C      10.77900000      18.21500000      15.58200000 
C      11.98500000      19.13500000      15.56100000 
C      11.78000000      20.22300000      14.56000000 
O      11.44100000      19.95900000      13.39200000 
N      11.97000000      21.47300000      14.97400000 
H      12.50700000      16.36700000      15.34900000 
H      11.22200000      17.52100000      17.54700000 
H      10.61200000      17.78600000      14.61000000 
H       9.90100000      18.77800000      15.86300000 
H      12.15300000      19.54600000      16.54300000 
H      12.86600000      18.58500000      15.26300000 
H      12.23000000      21.67900000      15.90800000 
H      11.85100000      22.22800000      14.34100000 
N       9.32800000      15.42700000      15.96600000 
C       8.07200000      14.72500000      16.07700000 
C       7.83700000      14.23600000      17.48100000 
O       6.68500000      14.19800000      17.93700000 
C       8.07500000      13.54500000      15.11900000 
H       9.95100000      15.18600000      15.22400000 
H       7.25500000      15.38800000      15.85300000 
H       7.14100000      13.01100000      15.18800000 
H       8.20000000      13.90100000      14.10600000 
H       8.89500000      12.88800000      15.34900000 
N       8.89400000      13.78500000      18.15200000 
C       8.77100000      13.27000000      19.48800000 
C       9.07600000      14.29900000      20.53900000 
O       8.65400000      14.14200000      21.69500000 
C       9.67300000      12.06100000      19.68000000 
H       9.80200000      13.85000000      17.74600000 
H       7.74700000      12.98500000      19.64000000 
H       9.59200000      11.69100000      20.69000000 
H       9.37200000      11.28500000      18.99300000 
H      10.70500000      12.32200000      19.48200000 
N       9.82400000      15.35300000      20.21100000 
C      10.20000000      16.30200000      21.22900000 
C       9.00400000      16.88700000      21.91300000 
O       9.03200000      17.11100000      23.13100000 
C      11.02300000      17.45500000      20.66500000 
O      10.30300000      18.15900000      19.65100000 
C      12.37300000      17.00700000      20.17500000 
H      10.22700000      15.39000000      19.30500000 
H      10.78100000      15.81400000      21.99100000 
H      11.14200000      18.16000000      21.46800000 
H       9.80900000      17.61500000      19.02800000 
H      12.90300000      17.85000000      19.75800000 
H      12.95300000      16.60400000      20.99200000 
H      12.26500000      16.25300000      19.41800000 
N       7.96400000      17.24200000      21.16000000 
C       6.86900000      17.96300000      21.75100000 
C       6.05500000      17.06200000      22.64600000 
O       5.58400000      17.50300000      23.70400000 
C       5.96300000      18.52100000      20.66200000 
C       6.61200000      19.59500000      19.87900000 
N       6.94300000      20.81900000      20.46000000 
C       6.96800000      19.62100000      18.57000000 
C       7.48000000      21.55500000      19.51600000 
N       7.51700000      20.86900000      18.35000000 
H       7.99900000      17.11600000      20.17500000 
H       7.24700000      18.76100000      22.36400000 
H       5.66300000      17.71300000      20.01100000 
H       5.07500000      18.90600000      21.14100000 
H       6.90000000      18.88400000      17.80800000 
H       7.83700000      22.55000000      19.61900000 
H       7.86600000      21.20600000      17.48700000 
N       5.85700000      15.85500000      22.13900000 
C       5.06500000      14.74900000      22.62900000 
C       4.45200000      14.05600000      21.41800000 
O       4.62500000      12.80900000      21.32300000 
C       3.95000000      15.17900000      23.56600000 
C       3.05700000      14.00400000      23.92800000 
C       3.82100000      12.93500000      24.64300000 
O       4.37500000      13.16200000      25.73200000 
N       3.86400000      11.74100000      24.05600000 
O       3.78700000      14.77400000      20.62600000 
H       6.37900000      15.65300000      21.31900000 
H       5.71000000      14.04100000      23.12500000 
H       4.36500000      15.60600000      24.45900000 
H       3.36100000      15.93700000      23.07600000 
H       2.28600000      14.34800000      24.60200000 
H       2.57700000      13.60200000      23.05200000 
H       3.60300000      11.64800000      23.10200000 
H       4.37400000      11.00300000      24.48100000 
H      11.68522730      11.30170552      27.32807294 
H      14.55168377      12.72246153      26.51670340 
H      14.74504397       9.44669870      23.33388718 
H      18.95246740      11.30907879      21.95778559 
H      18.27297799      10.68905026      17.63912449 
H      21.44328657      11.59915096      17.15642396 
H      21.20717511       8.01452892      13.95445429 
H      26.34314369      10.28106718      10.90500421 
H      30.63911474      13.57100692       9.85641383 
H      29.71451202      14.15492220      13.03555959 
H      16.17381175      20.17002551      24.05307690 
H      14.64085466      22.09929881      21.78274041 
H      19.13475153      22.26258071      20.60578686 
H      17.82148216      23.38339279      16.22566755 
H      21.73126499      21.28218045      14.81510604 
H      20.44935979      23.68017225      10.83647101 
H      24.34934802      20.28458780      10.74930919 
