 333 
 
N               103.0861767270       61.7464107462      176.5947164103
C               103.7783617956       61.0027293200      175.5627748841
C               103.4161460495       61.5506691528      174.1730501664
O               104.2732360035       61.6630863618      173.3040525621
C               103.5000035135       59.5026981278      175.7197189795
C               104.5924582088       58.6186258594      175.0946127759
C               105.4224384405       57.8744284557      176.1466732857
C               106.2816722588       58.7657764311      177.0391109152
N               107.5123730200       59.2213125333      176.3290976650
H               102.2635197072       61.3203285875      176.9962237936
H               104.8477305886       61.2101432202      175.6861441875
H               103.4251396099       59.3045772719      176.7905417024
H               102.5258770821       59.2854309722      175.2827107957
H               104.1201645987       57.8691840594      174.4610898406
H               105.2204265187       59.2237603506      174.4411166781
H               104.7336361477       57.3202185246      176.7836057173
H               106.0534387997       57.1400826389      175.6456318759
H               105.7152260776       59.6377792730      177.3655086910
H               106.5883009057       58.2007472747      177.9199189362
H               108.0927486209       59.8165061537      176.9377776154
H               108.0754677010       58.4093666647      176.0333932908
H               107.2781601001       59.7660834451      175.4862940873
N               102.1527030300       61.9435487734      173.9876465955
C               101.7836893721       62.7089883414      172.8129635924
C               102.5938345127       64.0154051552      172.7331815715
O               102.9867920905       64.4765479469      171.6720273996
C               100.2865272785       63.0431628581      172.8315565619
O               100.0069616886       63.8683526066      171.7212041583
H               101.4528191011       61.7665017086      174.6991740809
H               102.0088242064       62.1417767982      171.9006340013
H                99.7211118424       62.1051829187      172.7837223074
H               100.0502737717       63.5667922418      173.7669975844
H                99.0583229427       63.8600044012      171.5470558183
N               102.8553645056       64.5775044191      173.9160148317
C               103.6494708786       65.7896529072      174.0208472349
C               105.1026487789       65.4771776034      173.6239318464
O               105.7705684368       66.2248181378      172.9217550556
C               103.5498462365       66.3753397218      175.4341520898
C               104.1018919416       67.7955987565      175.4805303150
C               104.1238870390       68.4728823313      176.8377189378
O               104.7520244053       69.5204168160      176.9870338073
N               103.4389733465       67.9215484898      177.8405092740
H               102.3415713946       64.2341840882      174.7239328975
H               103.2785701396       66.5258169233      173.2935769026
H               102.4918387927       66.3767545992      175.7055870836
H               104.1087250473       65.7403538429      176.1226136555
H               105.1217309522       67.8232600042      175.0916611842
H               103.5057176331       68.4492733050      174.8361646807
H               102.8587247672       67.1040362487      177.7555141410
H               103.3494469094       68.4377859297      178.7037712844
N               105.5560164376       64.2965704380      174.0565771423
C               106.8423561870       63.7774627899      173.6383684739
C               106.8939510645       63.6161182458      172.1085778334
O               107.9562447899       63.7575717609      171.5054497545
C               107.0778508736       62.4182896528      174.3197250313
O               108.3866115626       61.9210538185      174.1935398351
H               105.0787295995       63.8394484772      174.8332648427
H               107.6468762147       64.4764457032      173.9081666325
H               106.9038430247       62.5505436873      175.3925024812
H               106.3519890667       61.7127244540      173.8919745708
H               108.7290718768       62.1073074087      173.3116036067
N               105.7450959435       63.2763067760      171.5270335935
C               105.6029328268       63.1615451082      170.0877084739
C               105.6828142706       64.5435974308      169.4297006151
O               106.2985589123       64.6951802913      168.3805685161
C               104.3034129509       62.4524222494      169.7283950465
H               104.9626655177       62.9624047989      172.0956466968
H               106.4613403285       62.5991837840      169.6973347632
H               104.2395816910       62.3311326241      168.6514895392
H               104.2787199268       61.4735762405      170.1992354491
H               103.4595057510       63.0463718890      170.0664534557
N               105.0828860780       65.5611056577      170.0505945077
C               105.3774189836       66.9204903447      169.6152898956
C               106.9019883893       67.0284646660      169.5065935432
O               107.4508593451       67.4336153577      168.4902315714
C               104.7585059285       67.9330073133      170.5803604775
C               105.1375397023       69.4064627832      170.3571679310
C               106.5218825331       69.7321048971      170.9158870254
C               105.0377644347       69.8378264530      168.8961480398
H               104.4581820056       65.4031461328      170.8343827397
H               104.9879224495       67.0718104863      168.6004461233
H               103.6745567684       67.8348368183      170.5065823334
H               105.0543933424       67.6654506275      171.5935617380
H               104.4185375974       69.9966103810      170.9348721146
H               106.6817768712       70.8077212979      170.9147049966
H               106.6176889800       69.3776135731      171.9395881761
H               107.3080948662       69.2831828511      170.3170546606
H               105.2003074607       70.9108252142      168.8266392196
H               105.7989314908       69.3464706734      168.2965458104
H               104.0558127834       69.6161248118      168.4861061036
N               107.5766974663       66.5726091922      170.5687991797
C               109.0242287531       66.5294279456      170.5747045752
C               109.5481384348       65.9500232699      169.2583521214
O               110.2493415110       66.5941271257      168.4895059110
H               107.0798938446       66.3842861414      171.4322604250
H               109.4592832266       67.5284741125      170.6963561846
H               109.3563227622       65.8870520760      171.3895963821
N               109.1173095791       64.7099787684      168.9860333679
C               109.6892294368       63.9962093360      167.8606923877
C               109.3978650046       64.7210034815      166.5451309413
O               110.1360466502       64.5992682518      165.5669014428
C               109.2484103268       62.5181583228      167.8482254578
O               110.2721913923       61.7928313344      167.1989151224
C               107.9008451637       62.2975406676      167.1655044486
H               108.6898375046       64.1854303548      169.7434860402
H               110.7856205700       63.9962556976      167.9735464778
H               109.1959436413       62.2111195491      168.9062088994
H               110.0762915690       60.8489336116      167.2786224108
H               107.5646819660       61.2762485046      167.3242663157
H               107.1689797062       62.9930749719      167.5616350157
H               108.0106422285       62.4883486549      166.1039904118
N               108.2743550847       65.4341940527      166.4924836392
C               107.9519325514       66.2651151568      165.3520909302
C               108.9534832589       67.4100537709      165.1749951246
O               109.2994770010       67.7460369809      164.0435355516
C               106.5385584332       66.8161920525      165.4834450463
H               107.6794497775       65.5117758948      167.3092887860
H               108.0435142500       65.6536396811      164.4448433561
H               106.2932489211       67.4294656465      164.6208474408
H               105.8325496885       65.9955520817      165.5662924812
H               106.4806168491       67.4272424145      166.3791341129
N               109.3653801663       68.0163331873      166.2830600218
C               110.4423625518       68.9822632281      166.2613551355
C               111.7137419025       68.3277630698      165.7148545969
O               112.4172936404       68.8912762317      164.8788173450
C               110.7008430824       69.5929401897      167.6461525031
C               109.4172928154       70.1431533853      168.2856621083
C               111.7837646012       70.6641079488      167.5373611262
C               108.6971317027       71.2263321044      167.4911636695
H               109.0963956682       67.6459075898      167.1862076999
H               110.1858417714       69.7849568659      165.5576976899
H               111.0788214898       68.7923282258      168.2925303433
H               108.7285985631       69.3140589580      168.4482133850
H               109.6907331628       70.5394910543      169.2660852037
H               111.9269541475       71.1501145334      168.4986520955
H               112.7303337557       70.2161419643      167.2418638050
H               111.5193920514       71.4157649049      166.7979171061
H               107.8585920736       71.5966325829      168.0746625769
H               109.3517075040       72.0657880224      167.2761914389
H               108.3119159733       70.8319019721      166.5562105540
N               111.9538264238       67.0772537738      166.1286366212
C               113.1355930921       66.3970208456      165.6319236704
C               113.0369383893       66.3372962506      164.1040029097
O               113.9851491559       66.6235381838      163.3749806751
C               113.2827373193       64.9807526494      166.1891557026
C               113.9768636582       64.9252224289      167.5492997279
C               113.1692087220       65.5990348053      168.7040378245
O               112.4353820077       64.8474124516      169.3800297684
O               113.3409545978       66.8225425867      168.8746015820
H               111.5275252028       66.7492036003      166.9876136563
H               114.0331597117       66.9865201640      165.8745887546
H               112.2947137280       64.5219142239      166.2501725594
H               113.8866924838       64.4083506603      165.4787919655
H               114.1309590236       63.8800533209      167.8252348768
H               114.9456047953       65.4279994955      167.4920883470
N               111.8650274539       65.9112561195      163.6329383482
C               111.6011960556       65.9152977876      162.2066702820
C               111.8908013574       67.3027206049      161.6245579465
O               112.5385946865       67.4270251315      160.5862601964
C               110.1475097303       65.5680678458      161.8832874774
C               109.8143999568       64.0841197989      162.0438452450
C               108.3042061910       63.8963860770      161.8178328865
N               107.9079042620       62.5471630694      161.4586988182
C               107.7144756593       61.5459883068      162.3114623919
N               108.0573107495       61.6618061828      163.5901201104
N               107.1593861134       60.4137331613      161.8776575745
H               111.1394572432       65.6187824450      164.2823894732
H               112.2904884388       65.2159124852      161.7124343203
H               109.5111203630       66.1741234734      162.5298044039
H               109.9692829892       65.8694986941      160.8492110924
H               110.3752010655       63.5088767396      161.3071697934
H               110.1192330057       63.7662666297      163.0411668082
H               107.7538403845       64.2101217985      162.7081129929
H               107.9998340678       64.5422122678      160.9941506952
H               107.7145768482       62.3852971151      160.4804130356
H               108.6106259632       62.4418425616      163.9079913349
H               107.9311903778       60.8892320660      164.2251103413
H               106.7384452176       60.3612362569      160.9629027327
H               106.9361169728       59.6768514389      162.5289460048
N               111.3453298252       68.3416090262      162.2598714715
C               111.4351881400       69.6452753718      161.6362766537
C               112.9057798842       69.9559102074      161.3428471589
O               113.2608028119       70.5694015626      160.3456983577
C               110.7732089621       70.7084150887      162.5166578482
C               109.2590389924       70.7935141122      162.2559469981
C               108.5019072949       71.2845380956      163.4877050663
C               108.9880440592       71.6945040497      161.0527407869
H               110.6576976632       68.1896449793      162.9983817100
H               110.9500056708       69.6211869430      160.6461708034
H               110.9754765763       70.4502349780      163.5559635050
H               111.2289103956       71.6772584445      162.3066497201
H               108.8973169234       69.7880862774      162.0118427053
H               107.4529744449       71.4321443108      163.2441668044
H               108.5592429606       70.5334202703      164.2685881701
H               108.9107694435       72.2230858348      163.8515069960
H               107.9364711729       71.6791246285      160.7722852603
H               109.2761591777       72.7224077038      161.2620623478
H               109.5461219232       71.3545557785      160.1793196133
N               113.7548590883       69.5528438635      162.3002136570
C               115.1769879691       69.7837440774      162.2285993127
C               115.8656214616       69.0105335482      161.0953894753
O               116.6737291945       69.5410410263      160.3537722531
C               115.7986136804       69.3612834403      163.5649453295
O               117.1875710240       69.5787790453      163.5295445988
H               113.3931207130       69.0880129287      163.1238698821
H               115.3798249614       70.8464607333      162.0391122027
H               115.3237510258       69.9496028756      164.3619435427
H               115.5698757326       68.2991554125      163.7295992016
H               117.5613320029       69.3605610795      164.3932641905
N               115.5398598788       67.7066121197      161.0228772935
C               116.3550966038       66.8011548007      160.2518052916
C               115.7140069433       66.1028342930      159.0484642357
O               116.4575901941       65.5058448986      158.2651438880
C               116.9226067380       65.6922613175      161.1662124757
O               117.8526370461       64.8613529604      160.5195360524
H               114.9055524243       67.3320718384      161.7197091422
H               117.1833501262       67.4032475885      159.8539450535
H               117.4302064971       66.1648338671      162.0129391093
H               116.0775254695       65.0972898049      161.5425683994
H               117.5874203888       64.8042448175      159.5806180853
N               114.3914183515       66.1170078785      158.9480718715
C               113.7002094047       65.3883584899      157.9107530677
C               113.5942621498       63.8976084930      158.2593926437
O               113.8489524324       63.4615569910      159.3743121986
H               113.8309976100       66.6163449384      159.6318414110
H               112.6991316984       65.8045378000      157.7667892089
H               114.2501745130       65.4836718163      156.9690128744
N               113.3766653168       56.3497150566      162.2589977431
C               112.6430354195       56.3268513046      163.5097396628
C               111.2699066104       55.6576904435      163.3147529868
O               110.9116377598       54.6950420282      163.9762828809
C               112.5467738913       57.7422875732      164.1109316123
C               112.1920040127       58.8538392643      163.1349162410
O               111.6493446017       58.6664053692      162.0460187222
N               112.5000046390       60.0804279016      163.5489721667
H               113.0464626522       57.0036884106      161.5595900255
H               113.1995620987       55.6790580214      164.1957528655
H               111.7915104685       57.7251131053      164.9010470898
H               113.5057709607       57.9811587501      164.5725407381
H               112.3351103815       60.8594526578      162.9280795500
H               112.9230468382       60.2584653285      164.4452716095
N               110.5544963848       56.2215624713      162.3327844064
C               109.2018782746       55.8107903419      162.0357656997
C               108.8607080239       56.0114110244      160.5571205439
O               108.3759441500       55.1274928196      159.8693849412
C               108.2065277076       56.6248439467      162.9033737590
O               108.6137732537       56.7247071842      164.2408863601
H               110.8832321016       57.1408066016      162.0091018744
H               109.1199449211       54.7440887496      162.2726211426
H               108.1790320257       57.6541435626      162.5386376648
H               107.2106869801       56.1740197125      162.8141759820
H               108.7175737045       55.8437339321      164.6196180823
N               109.0742765361       57.2583951139      160.1065189015
C               108.6609696811       57.6936501636      158.7821975155
C               109.1716573837       56.7669114578      157.6797393052
O               108.5036881954       56.4937085964      156.6957554482
C               109.1893927119       59.1035656894      158.5290190524
H               109.5827482095       57.9315239106      160.6650336003
H               107.5663675049       57.6690282179      158.7234117413
H               108.8369696130       59.4632335065      157.5665676430
H               108.8420775373       59.7759817971      159.3073725421
H               110.2769952471       59.0995451677      158.5231726401
N               102.6742059970       71.7330158965      160.3237218121
C               103.5771596867       71.7627570624      161.4495631634
C               103.5245996668       73.0683476666      162.2538874937
O               103.7545992653       73.0471530811      163.4605884202
C               105.0143306021       71.5193194025      160.9886490357
C               105.2499577953       70.0869425825      160.5373286949
S               105.1095120735       68.9275813967      161.9231534105
C               105.8542206860       67.4556555223      161.1832731026
H               103.0774359095       71.8686113165      159.4064456127
H               103.2924752500       70.9597398597      162.1446522901
H               105.2481853380       72.1826376090      160.1515715597
H               105.6946195646       71.7472057678      161.8124056404
H               104.5392663825       69.7913538232      159.7611593078
H               106.2522554220       69.9835478778      160.1165845269
H               105.7228952216       66.6447263057      161.8899943489
H               105.3501009479       67.2360564025      160.2448562234
H               106.9101817382       67.6401781551      160.9933326883
N               100.5101420760       72.3559929724      164.2057190571
C               100.8517051711       71.3450103868      165.1934215377
C               101.5290308586       71.9764849706      166.4108978269
O               101.1641821484       71.7162924457      167.5524918608
C               101.7634728899       70.2901325529      164.5769582268
H               100.7170563084       72.1343686976      163.2318088786
H                99.9295695985       70.8804372242      165.5699352259
H               101.9013084859       69.4685033046      165.2730876294
H               101.3227887427       69.9119470002      163.6589868890
H               102.7383712924       70.7170101365      164.3563812399
N               102.5630908789       72.7728442409      166.1363015260
C               103.3143725072       73.3992397144      167.2026386384
C               102.3826227624       74.1544369538      168.1491625610
O               102.4429041625       73.9823069327      169.3626797804
C               104.3665894545       74.3495708457      166.6304753360
C               105.5859764315       73.5780335396      166.1141826120
C               106.5688558671       74.5505554851      165.4882688518
O               107.4610977956       75.1023042233      166.1105464333
N               106.3445282765       74.7721481759      164.1825225102
H               102.8595621994       72.9556866169      165.1822361374
H               103.7968493873       72.6233599826      167.8136010039
H               103.9086086734       74.9267032932      165.8249652936
H               104.6866224497       75.0461295144      167.4065880794
H               106.0805392711       73.0746508176      166.9441719799
H               105.2735396703       72.8437251231      165.3739263044
H               105.5926952986       74.2889278988      163.7173716109
H               106.9327099026       75.4149626585      163.6780907244
N                99.9033471601       71.8930186544      170.1679630453
C               100.5047334101       71.1510314431      171.2549784280
C               101.0486665528       72.0646735168      172.3574105785
O               101.0723720256       71.6934686913      173.5269617787
C               101.6163742055       70.2476904295      170.7206395221
C               101.0698221539       69.0371530753      169.9542182819
C               100.5138864706       67.9689352447      170.8897484563
O                99.7623372613       68.2317135249      171.8181129403
N               100.9007830227       66.7162286904      170.6081540005
H               100.3968768400       71.9027621357      169.2797014972
H                99.7399352072       70.5216683180      171.7299058730
H               102.2519322918       70.8383311815      170.0591936408
H               102.2108010146       69.9026541246      171.5675041054
H               100.2641678013       69.3669525046      169.2968802166
H               101.8603898585       68.6137629505      169.3370594839
H               101.5419988397       66.5046508455      169.8637975360
H               100.6039228934       65.9372260789      171.1812031901
H               103.6438657660       61.8910681245      177.2861332012
H               113.3076264409       63.2402651668      157.5624423429
H               114.2349956799       56.5686859739      162.4181226158
H               110.0827952780       56.3608601136      157.7500958504
H               102.2623174294       70.9335097318      160.2899919961
H               103.3041917123       73.9294036770      161.7956267814
H                99.6254996945       72.5187594507      164.2359668736
H               101.7122234595       74.7991766012      167.7819084776
H                99.0903930872       71.5527004215      169.9855098302
H               101.3902380810       72.9761434442      172.1281695204
