552
Properties=species:S:1:pos:R:3 pbc="F F F"
N      44.82600000      49.02500000      64.89700000 
C      44.75100000      47.65100000      65.55600000 
C      44.16700000      48.05600000      66.67100000 
O      44.29500000      48.98300000      67.73100000 
C      46.45800000      47.52000000      66.08500000 
C      46.44000000      46.02900000      66.83800000 
C      45.88500000      44.79300000      66.33900000 
C      48.07700000      46.03800000      66.99100000 
H      45.04500000      49.76900000      65.39100000 
H      44.40400000      47.00400000      64.97000000 
H      46.83800000      47.30400000      64.95900000 
H      46.69300000      48.17600000      66.42100000 
H      46.08600000      46.21800000      67.64400000 
H      46.22200000      44.08600000      66.58100000 
H      44.98100000      44.88300000      65.98300000 
H      46.47300000      44.73400000      65.01500000 
H      48.21100000      45.07000000      67.74500000 
H      48.54300000      45.78800000      66.20600000 
H      48.47200000      46.78900000      67.49900000 
N      42.67800000      46.81000000      66.83600000 
C      42.14200000      47.30600000      68.29800000 
C      42.10600000      45.65600000      68.67900000 
O      42.26900000      45.05200000      68.57300000 
C      40.55100000      47.11500000      67.59900000 
C      40.37000000      48.50700000      66.72700000 
C      38.56600000      48.18400000      66.41500000 
C      40.12800000      49.96300000      67.43300000 
H      42.79400000      46.51300000      66.39800000 
H      42.24300000      48.13200000      68.68600000 
H      40.32800000      46.39300000      67.10000000 
H      39.93300000      47.25800000      68.53200000 
H      40.85500000      48.46200000      65.91300000 
H      38.51300000      49.14800000      65.50800000 
H      38.69100000      47.39600000      65.61500000 
H      38.11100000      48.27100000      66.87900000 
H      40.11000000      50.48800000      66.94700000 
H      39.62300000      49.81500000      68.34600000 
H      41.27400000      49.93300000      67.88600000 
N      42.34300000      46.46100000      70.42800000 
C      42.74300000      44.88400000      71.24400000 
C      41.35600000      45.00800000      72.33100000 
O      41.31000000      46.23500000      72.98700000 
C      43.84300000      45.31200000      71.92000000 
C      45.32800000      45.41100000      71.00900000 
C      46.34500000      45.84300000      71.67000000 
C      45.42900000      44.01000000      70.42500000 
H      42.39500000      47.09000000      70.66300000 
H      42.53600000      44.27900000      70.82500000 
H      43.95200000      46.26200000      72.55300000 
H      44.07200000      44.43100000      72.75200000 
H      45.05100000      46.00900000      70.37900000 
H      47.27500000      45.67000000      71.20800000 
H      46.36600000      46.51300000      72.33600000 
H      46.69100000      44.79200000      72.71700000 
H      46.28500000      43.97500000      69.71100000 
H      45.46400000      43.10000000      71.07500000 
H      44.51800000      43.72700000      69.59800000 
N      40.88700000      44.24000000      72.45800000 
C      39.58900000      43.93600000      73.49200000 
C      39.98100000      42.89500000      74.45000000 
O      40.28900000      41.67600000      74.07400000 
C      38.36900000      43.57100000      72.80900000 
C      37.98600000      44.39300000      71.55400000 
O      38.00700000      45.49300000      71.62800000 
O      37.62400000      43.81500000      70.72300000 
H      40.96000000      43.19000000      71.87800000 
H      39.63400000      44.87000000      73.95800000 
H      38.34400000      42.52100000      72.60400000 
H      37.57400000      43.70600000      73.60500000 
N      39.93700000      43.01600000      75.97900000 
C      40.41900000      42.08500000      76.66400000 
C      38.95300000      42.05800000      77.66100000 
O      38.56700000      43.00000000      78.47600000 
C      41.27200000      42.62200000      77.64100000 
C      42.01000000      42.05000000      78.76800000 
N      42.66000000      42.30800000      79.62300000 
C      41.85600000      40.27600000      78.95900000 
C      43.23900000      41.28100000      80.81000000 
N      42.60400000      40.50000000      79.93900000 
H      39.83700000      44.21400000      76.03600000 
H      40.43600000      41.33700000      76.43300000 
H      42.25300000      42.88900000      76.89600000 
H      41.20300000      43.63900000      78.11700000 
H      41.42300000      39.67500000      78.40700000 
H      43.68100000      41.46500000      81.29700000 
H      42.80600000      39.24400000      80.60800000 
N      38.37600000      40.87400000      77.65100000 
C      37.14000000      40.72800000      78.53900000 
C      37.18500000      39.17800000      79.14500000 
O      36.35900000      38.55800000      79.31600000 
C      35.84100000      40.55600000      77.57500000 
O      35.80100000      39.62500000      76.56500000 
H      38.65100000      40.13000000      76.93700000 
H      37.07800000      41.24000000      79.12000000 
H      35.01900000      40.61700000      78.19800000 
H      35.85300000      41.53600000      77.02300000 
H      35.57500000      38.80200000      77.00100000 
N      42.34700000      37.21600000      83.49600000 
C      43.48300000      37.14900000      83.52700000 
C      44.18800000      38.46800000      83.33700000 
O      43.96500000      39.10900000      82.75600000 
C      43.98500000      35.82300000      83.05700000 
C      44.13600000      36.14100000      81.13800000 
C      44.58800000      36.57800000      80.50000000 
C      42.41100000      34.89600000      80.98400000 
C      44.61100000      36.63000000      79.28800000 
C      42.71700000      35.30000000      79.21700000 
C      43.33800000      35.57700000      78.50900000 
O      43.27200000      35.52900000      77.18100000 
H      41.79800000      37.57000000      82.44700000 
H      43.63900000      36.79400000      84.73200000 
H      45.19700000      35.83900000      82.98500000 
H      43.75700000      35.11300000      83.15600000 
H      45.46800000      37.18100000      80.80100000 
H      42.24000000      34.78800000      81.37300000 
H      45.14800000      36.99000000      78.40500000 
H      41.80400000      34.48100000      79.05600000 
H      42.76300000      35.16100000      76.93200000 
N      39.75900000      46.04700000      79.43400000 
C      40.70500000      47.27600000      78.95800000 
C      40.37500000      46.88300000      77.51500000 
O      40.33100000      46.10100000      76.80300000 
C      42.32000000      46.72100000      79.07200000 
C      43.02200000      47.49300000      78.87800000 
C      43.92000000      48.88500000      78.86500000 
C      44.08300000      47.04100000      77.45800000 
C      44.47200000      49.54100000      78.86600000 
C      45.09500000      47.92800000      76.87100000 
C      45.32200000      49.11100000      77.64500000 
H      39.59500000      45.41100000      79.07700000 
H      40.56800000      48.03500000      79.25100000 
H      42.24000000      46.62500000      80.34700000 
H      42.27100000      45.61000000      78.82400000 
H      42.93300000      49.11000000      80.26000000 
H      43.72800000      46.19900000      77.03600000 
H      44.82700000      50.40800000      79.16700000 
H      45.56300000      47.57000000      76.18600000 
H      46.11000000      49.71400000      77.21700000 
N      40.32800000      48.31100000      76.66700000 
C      40.23300000      48.35700000      75.43300000 
C      41.12500000      49.49000000      74.96700000 
O      41.39400000      50.64300000      75.71700000 
C      38.87100000      49.06700000      74.86300000 
O      38.00500000      47.87100000      75.00300000 
C      38.58900000      49.26000000      73.48400000 
H      40.44100000      49.22300000      77.41500000 
H      40.44400000      47.54500000      74.85200000 
H      38.53600000      49.87500000      75.62200000 
H      37.35400000      47.92700000      76.16900000 
H      37.78500000      49.57700000      73.26300000 
H      39.35800000      50.21100000      73.23100000 
H      38.99500000      48.56500000      72.86600000 
N      54.34300000      41.84300000      67.63700000 
C      53.27200000      41.63900000      68.50500000 
C      53.45600000      40.12900000      69.17200000 
O      53.45800000      39.44900000      68.80600000 
C      51.76600000      41.86500000      68.16600000 
C      50.68800000      41.39400000      69.04200000 
C      51.41000000      43.14300000      67.35100000 
H      54.17500000      40.99600000      66.78500000 
H      53.45500000      42.53000000      69.34200000 
H      51.72700000      41.05600000      67.26500000 
H      49.89100000      41.66300000      68.77900000 
H      50.80900000      40.64600000      69.47200000 
H      50.87500000      42.26200000      69.98800000 
H      50.76600000      43.24300000      67.04400000 
H      51.71200000      43.96400000      68.23800000 
H      52.39300000      43.41900000      66.65800000 
N      51.93400000      38.77600000      73.17800000 
C      50.95200000      38.36700000      74.15100000 
C      51.15900000      37.27100000      74.51000000 
O      51.10200000      36.39300000      74.45200000 
C      49.26200000      38.64600000      73.37600000 
C      49.26800000      39.98900000      72.66900000 
C      48.66200000      38.28500000      74.45900000 
C      47.85400000      39.85300000      71.77700000 
H      51.81800000      37.59600000      72.06300000 
H      51.12300000      39.53400000      74.51700000 
H      49.39300000      37.80700000      72.69300000 
H      49.22000000      40.78200000      73.43200000 
H      50.14100000      40.14700000      71.97400000 
H      47.33200000      38.51600000      74.08000000 
H      48.47100000      37.50000000      74.94800000 
H      48.55200000      39.24500000      75.38900000 
H      47.92300000      41.00500000      71.26300000 
H      47.98800000      39.28000000      71.11400000 
H      47.17600000      39.92300000      72.36500000 
N      50.73500000      32.88200000      74.27400000 
C      49.68400000      32.70600000      73.51700000 
C      49.34000000      33.09600000      72.54200000 
O      48.89700000      32.18800000      71.39400000 
C      48.03800000      33.51000000      74.63400000 
C      46.98300000      32.98500000      74.12100000 
C      48.31400000      32.99100000      75.96500000 
H      50.89100000      34.35200000      74.65000000 
H      49.41600000      31.81400000      73.82000000 
H      48.45400000      34.46100000      74.55900000 
H      46.20700000      33.50500000      74.46600000 
H      46.84900000      33.55900000      72.77300000 
H      46.82100000      32.05400000      73.80400000 
H      47.50400000      33.34400000      76.53300000 
H      48.18000000      31.79100000      76.01900000 
H      49.22000000      33.14900000      76.50200000 
N      49.83500000      34.38300000      71.78700000 
C      49.53200000      34.75100000      70.40800000 
C      50.68900000      35.34100000      70.16000000 
O      51.25900000      36.61000000      70.72600000 
C      48.44300000      35.43300000      70.25900000 
C      47.74400000      35.35200000      68.87200000 
C      47.52100000      36.53200000      68.16600000 
C      47.33300000      34.21800000      67.88700000 
C      46.89700000      36.92100000      66.75000000 
C      46.88400000      34.09400000      67.18500000 
C      46.62400000      34.88700000      66.28100000 
O      46.00500000      35.03200000      65.03000000 
H      50.14700000      34.99400000      72.54000000 
H      49.64100000      33.81400000      69.88000000 
H      47.60100000      35.05500000      70.89300000 
H      48.45600000      36.57200000      70.53700000 
H      47.70900000      37.51300000      68.44600000 
H      47.66500000      33.17000000      68.90700000 
H      46.69800000      37.17700000      66.35900000 
H      46.65100000      33.13100000      66.59100000 
H      45.70200000      35.93800000      64.58000000 
N      52.98600000      36.16100000      66.08500000 
C      53.12700000      36.70500000      64.85300000 
C      54.02400000      37.50100000      64.61900000 
O      54.33300000      38.73100000      65.08000000 
C      52.07600000      36.71300000      64.13700000 
C      50.80400000      35.87600000      64.28200000 
C      49.26600000      36.16100000      63.69800000 
C      48.94700000      37.80600000      63.63500000 
N      47.68600000      38.17100000      63.03700000 
H      53.13500000      37.66400000      66.89900000 
H      53.45400000      35.46800000      64.60000000 
H      51.59500000      38.13300000      64.45500000 
H      52.07300000      36.96400000      63.05100000 
H      50.94100000      35.09900000      64.20700000 
H      50.38400000      36.06100000      65.47900000 
H      49.71500000      36.23600000      62.47400000 
H      48.77000000      35.71400000      63.71600000 
H      48.68800000      37.90900000      64.88600000 
H      49.73200000      38.53800000      63.51200000 
H      47.64600000      38.97100000      62.91700000 
H      47.92100000      37.69000000      61.94200000 
H      46.89500000      37.68600000      63.36200000 
N      41.74000000      46.92200000      58.80100000 
C      40.88900000      47.02100000      60.24600000 
C      41.58200000      45.39800000      60.98900000 
O      40.97700000      44.50500000      60.23600000 
C      39.90900000      47.39700000      60.24300000 
C      38.81500000      47.05500000      61.72400000 
C      37.53500000      47.46900000      61.54800000 
C      37.09800000      49.29200000      61.17200000 
N      35.94800000      49.57600000      61.13300000 
H      41.57500000      46.27900000      58.39300000 
H      41.58100000      47.58600000      60.87500000 
H      39.49800000      48.00500000      59.75800000 
H      39.03300000      46.25800000      59.57800000 
H      39.04300000      46.42200000      62.10100000 
H      39.52600000      48.05200000      62.25700000 
H      36.96800000      46.93700000      60.92500000 
H      37.00700000      47.47100000      62.62500000 
H      37.64500000      49.67400000      61.75900000 
H      37.55000000      49.23100000      60.19700000 
H      35.57900000      50.13200000      60.89200000 
H      35.13400000      48.66000000      60.32600000 
H      35.27300000      49.20200000      62.13300000 
N      42.00100000      45.39200000      61.65700000 
C      42.59500000      44.30500000      62.57400000 
C      42.03700000      44.27000000      63.99400000 
O      42.44500000      45.37000000      64.74600000 
C      43.99600000      43.86800000      62.57400000 
C      44.36200000      42.47600000      63.31300000 
C      45.82400000      42.18300000      63.03100000 
N      46.18900000      42.21000000      62.09900000 
C      46.41900000      40.69600000      60.85600000 
N      45.59800000      39.65800000      61.62900000 
N      47.10000000      40.64700000      59.65200000 
H      42.63100000      46.33500000      62.34100000 
H      41.92900000      43.33600000      62.03100000 
H      44.31500000      43.82600000      61.36300000 
H      44.53800000      44.64800000      62.98800000 
H      44.08800000      42.53100000      64.11200000 
H      43.74300000      41.73000000      62.72600000 
H      46.39000000      42.85700000      63.50900000 
H      45.98200000      41.23000000      63.66800000 
H      46.76800000      42.75300000      61.23800000 
H      45.20400000      39.67100000      62.15600000 
H      45.84700000      38.91700000      60.98000000 
H      47.49000000      41.48300000      59.63300000 
H      46.98700000      40.09900000      59.41500000 
N      41.12000000      43.32000000      64.55900000 
C      40.53400000      43.23000000      65.76900000 
C      40.97200000      41.96400000      66.29800000 
O      40.54000000      41.02700000      65.97200000 
C      39.16800000      43.59000000      65.56600000 
O      39.02500000      44.74600000      65.06900000 
C      38.59500000      43.38400000      67.00200000 
H      40.93700000      42.60800000      63.81800000 
H      41.11800000      44.25700000      66.34400000 
H      38.70500000      42.82500000      65.16200000 
H      37.92600000      45.03600000      64.87700000 
H      37.29200000      43.90000000      66.98100000 
H      38.49500000      42.65200000      67.57600000 
H      38.98700000      44.43400000      67.81800000 
N      41.76700000      42.20300000      67.69600000 
C      42.20300000      40.92300000      68.10100000 
C      41.08500000      40.84200000      69.83500000 
O      41.45600000      41.80600000      70.29300000 
C      43.54900000      40.68700000      68.52700000 
C      44.41600000      40.47400000      67.25100000 
C      44.17000000      39.72500000      69.49700000 
C      45.72900000      40.66900000      67.06600000 
H      41.99900000      42.91800000      67.86300000 
H      41.73900000      40.01200000      67.73900000 
H      43.98300000      41.70700000      68.96700000 
H      44.03300000      39.50000000      66.76100000 
H      43.90900000      41.37500000      66.39600000 
H      44.77000000      39.50900000      69.64000000 
H      43.51400000      39.76700000      70.42600000 
H      43.49200000      38.60200000      69.09000000 
H      46.25800000      40.59500000      66.22700000 
H      46.16800000      41.64700000      67.69000000 
H      46.32500000      39.82500000      67.91100000 
N      40.66600000      40.35100000      69.84600000 
C      39.71000000      40.06700000      71.13900000 
C      39.83000000      38.36500000      71.60700000 
O      39.96500000      37.78300000      71.27500000 
C      38.13900000      40.07000000      70.62200000 
O      37.89900000      40.97300000      69.67700000 
H      40.38600000      39.11400000      69.13400000 
H      39.86300000      40.64900000      71.53800000 
H      37.79900000      39.10200000      70.11800000 
H      37.55400000      40.09500000      71.59700000 
H      37.81000000      42.06500000      70.24600000 
N      40.15000000      38.63300000      73.05000000 
C      40.44100000      37.75200000      73.91000000 
C      39.28200000      37.39800000      74.92300000 
O      39.04200000      38.43600000      75.70200000 
C      42.03800000      37.58200000      74.39800000 
C      41.97900000      38.94800000      75.09700000 
C      42.87800000      37.25500000      73.27300000 
C      43.68100000      39.17900000      75.83100000 
H      40.10800000      39.66000000      73.50400000 
H      40.40000000      36.64500000      73.22000000 
H      41.94700000      36.83000000      75.27200000 
H      42.13700000      39.79800000      74.46800000 
H      41.46700000      39.19800000      75.96300000 
H      43.87100000      37.20500000      73.78500000 
H      42.61900000      36.52100000      72.90600000 
H      42.91800000      38.14400000      72.67100000 
H      43.67300000      39.96600000      76.32900000 
H      43.78500000      38.21100000      76.47600000 
H      44.35000000      39.02000000      75.07800000 
N      38.95800000      35.89800000      74.89400000 
C      37.71100000      35.98200000      75.87100000 
C      38.45000000      34.03400000      76.61600000 
O      38.56500000      34.14800000      76.44600000 
C      36.23400000      35.82700000      75.62900000 
C      35.84200000      34.72100000      74.74300000 
C      35.03500000      33.55900000      75.60700000 
C      35.66500000      34.34800000      73.40900000 
N      34.62100000      32.83100000      74.98000000 
C      34.97000000      33.02600000      73.35100000 
C      36.01300000      34.55500000      72.36400000 
C      34.64400000      32.32000000      72.41400000 
C      35.84600000      34.21200000      71.18500000 
C      35.02900000      32.92200000      70.98700000 
H      39.03300000      35.68300000      74.60800000 
H      37.78400000      36.81900000      76.85500000 
H      35.70100000      36.27200000      76.23600000 
H      36.30700000      36.77600000      74.60100000 
H      34.90300000      33.66100000      76.68800000 
H      34.04900000      31.82300000      75.06600000 
H      36.64200000      35.74800000      72.24300000 
H      34.09500000      31.44700000      72.28700000 
H      36.08100000      34.50800000      70.13100000 
H      34.86700000      32.40200000      70.20700000 
N      37.30100000      34.82300000      77.79200000 
C      37.55500000      32.91200000      78.51300000 
C      38.26700000      33.45300000      80.18000000 
O      38.25100000      34.29600000      80.43400000 
H      36.95800000      34.98800000      78.20000000 
H      36.42500000      32.75800000      78.68700000 
H      38.02200000      32.52400000      78.11300000 
N      41.13100000      28.38100000      79.59300000 
C      40.90600000      28.32800000      78.56400000 
C      41.12900000      29.38200000      77.55000000 
O      39.84000000      30.14100000      77.47700000 
C      39.58900000      27.25800000      77.97700000 
C      39.63500000      26.04200000      78.81100000 
C      38.71800000      25.87600000      79.61600000 
C      40.28700000      25.07300000      78.51900000 
C      38.55100000      24.58500000      80.50800000 
C      40.39800000      23.50900000      79.13400000 
C      39.15400000      23.98100000      80.17300000 
O      39.17700000      22.35100000      80.93200000 
H      40.63000000      28.89100000      80.20000000 
H      41.97500000      27.37700000      77.86900000 
H      38.91600000      28.06300000      78.34800000 
H      39.60500000      27.20400000      76.99100000 
H      37.89800000      26.78200000      80.06400000 
H      41.09000000      25.06800000      77.77700000 
H      37.65200000      24.62400000      81.28200000 
H      40.81100000      23.07400000      79.02200000 
H      39.65100000      21.85600000      80.72100000 
N      42.22200000      29.99100000      77.02200000 
C      41.93300000      31.06900000      76.10900000 
C      41.48900000      31.07900000      75.07300000 
O      41.73800000      29.90100000      74.17200000 
C      43.57700000      31.53800000      76.04700000 
C      44.45200000      30.47800000      77.00000000 
C      43.55000000      29.42900000      77.12100000 
H      41.62500000      31.95700000      76.84100000 
H      43.91800000      31.25400000      75.01500000 
H      43.81100000      32.53400000      76.23500000 
H      45.40300000      30.29100000      76.58800000 
H      44.48400000      31.05000000      77.94000000 
H      43.67400000      28.58100000      76.23300000 
H      43.64400000      28.77400000      78.09400000 
N      40.55900000      31.86400000      74.60100000 
C      39.94900000      31.63800000      73.29200000 
C      40.06100000      33.32500000      72.69700000 
O      39.94600000      33.97300000      72.88800000 
C      38.25200000      31.36000000      73.18600000 
C      38.05600000      30.32400000      74.11600000 
C      36.91600000      29.19600000      73.10800000 
O      36.17000000      29.10400000      73.59800000 
N      37.34400000      28.72500000      72.34900000 
H      40.24000000      32.45300000      75.11700000 
H      40.32200000      30.95100000      72.68300000 
H      37.90100000      32.35200000      73.90200000 
H      38.00700000      31.53100000      72.41700000 
H      39.07100000      29.56800000      74.17500000 
H      37.66700000      30.31600000      74.95700000 
H      38.71400000      28.86400000      71.76000000 
H      37.02800000      28.14000000      71.58100000 
N      40.88900000      33.00400000      71.32400000 
C      41.50700000      34.16600000      70.66700000 
C      40.69200000      34.30700000      69.52100000 
O      40.63500000      32.85100000      68.35500000 
C      42.89200000      33.82200000      70.25100000 
C      43.41900000      35.20700000      69.68800000 
C      43.73800000      33.68300000      71.77600000 
H      41.10700000      32.01000000      71.00000000 
H      41.23700000      34.88100000      71.14100000 
H      43.05900000      33.08500000      69.75500000 
H      44.69800000      35.01800000      69.56400000 
H      43.10900000      35.29600000      68.77000000 
H      43.37400000      36.02700000      70.28900000 
H      44.67200000      33.50200000      71.47500000 
H      43.56700000      34.36400000      72.35800000 
H      43.35000000      32.63100000      72.13300000 
N      40.19600000      35.48200000      68.63500000 
C      39.76400000      35.55600000      67.58300000 
C      40.50700000      36.81700000      67.01000000 
O      40.79200000      37.71700000      67.64600000 
C      38.16700000      35.67100000      67.46900000 
C      37.75900000      36.87500000      68.08000000 
C      36.02100000      36.97500000      68.21200000 
O      35.49100000      35.95600000      67.69400000 
O      35.64200000      37.80600000      68.75600000 
H      40.28100000      36.08200000      69.53300000 
H      40.05500000      34.67200000      66.96600000 
H      37.99300000      35.77300000      66.34900000 
H      37.84900000      34.77400000      67.75900000 
H      37.97200000      36.82400000      69.26800000 
H      37.93800000      37.74400000      67.83600000 
N      40.75300000      36.35500000      65.60100000 
C      41.75800000      37.65100000      64.77800000 
C      40.84000000      37.79100000      63.58100000 
O      40.87800000      37.46200000      62.86700000 
C      43.08000000      37.02900000      64.56400000 
C      44.20600000      37.52900000      63.91000000 
O      43.71600000      39.15500000      63.47800000 
O      45.12900000      37.33800000      63.88000000 
H      40.67100000      35.94000000      65.23000000 
H      41.84600000      38.54100000      65.61500000 
H      43.42200000      36.51500000      65.53500000 
H      42.83000000      36.06800000      63.86600000 
N      40.10700000      39.00500000      63.76400000 
C      39.13400000      39.64400000      62.79600000 
C      39.90400000      40.29000000      61.60000000 
O      40.62600000      41.47000000      62.30800000 
C      37.99900000      40.33300000      63.36100000 
C      37.10000000      39.33600000      64.33700000 
C      35.96800000      40.44700000      64.75900000 
C      35.06100000      39.45100000      65.85600000 
N      34.05300000      40.33900000      66.14700000 
H      40.22400000      39.71700000      64.69000000 
H      38.86700000      38.63100000      62.20000000 
H      38.37900000      41.24400000      63.75300000 
H      37.38200000      40.57300000      62.47700000 
H      36.88100000      38.61700000      63.90700000 
H      37.75300000      39.36300000      65.19500000 
H      36.14600000      41.24400000      65.07700000 
H      35.22200000      40.46800000      63.84400000 
H      34.87300000      38.71900000      65.55600000 
H      35.69200000      39.51000000      66.70500000 
H      33.33000000      39.78400000      67.02900000 
H      34.06500000      41.29000000      66.52100000 
H      33.17600000      40.39800000      65.40400000 
N      40.04400000      40.10400000      60.76100000 
C      40.80300000      40.75400000      59.38300000 
C      39.86400000      40.88700000      58.41800000 
O      39.26800000      40.23500000      57.79300000 
C      42.02800000      40.06500000      59.00300000 
C      41.56700000      38.22700000      58.93900000 
C      42.85300000      40.70100000      58.06100000 
H      39.50200000      39.17000000      60.23900000 
H      41.19200000      41.64400000      59.97200000 
H      42.69800000      39.82900000      60.05100000 
H      42.72000000      37.93800000      58.42700000 
H      41.30200000      37.99400000      59.30400000 
H      41.12900000      38.40200000      57.75400000 
H      43.82200000      40.13500000      57.86500000 
H      42.27100000      40.60400000      57.03000000 
H      42.99600000      41.60000000      58.27900000 
N      39.50100000      42.71600000      58.10800000 
C      38.70200000      42.87000000      57.58000000 
C      39.23000000      44.10000000      56.32100000 
O      39.84700000      44.73600000      56.88300000 
C      37.51300000      43.23300000      58.26300000 
C      36.77800000      42.55300000      58.96500000 
C      35.35600000      42.42800000      60.03800000 
O      35.04800000      44.04300000      59.55900000 
O      35.18500000      42.19600000      60.36500000 
H      40.10000000      43.01800000      58.73900000 
H      38.26300000      41.99900000      56.56000000 
H      37.66300000      44.16700000      58.69300000 
H      36.58400000      43.94200000      57.31400000 
H      36.21000000      41.43100000      58.09200000 
H      37.34400000      41.82500000      59.49500000 
H      45.44669519      49.01219820      64.24540688 
H      38.06154263      38.75902765      79.38192867 
H      41.99340124      36.40791384      83.67478670 
H      44.98847993      38.69173963      83.89303279 
H      40.08188473      45.69782704      80.19808357 
H      41.56580089      49.44305043      74.07062379 
H      54.30502877      42.67831734      67.30412897 
H      53.58250255      40.03042686      70.15905645 
H      51.71748449      39.58791632      72.85564471 
H      51.69119451      37.10916919      75.34101130 
H      50.64706131      32.39767325      75.02745497 
H      51.32809958      34.93393493      69.50742835 
H      52.18723734      35.75029442      66.14243808 
H      54.73178319      37.27424072      63.94995352 
H      41.53912654      47.63138425      58.28483739 
H      38.67265425      32.77582298      80.79390220 
H      41.08774409      27.55718538      79.95280327 
H      38.90591693      44.02114582      55.37826346 
