661
Properties=species:S:1:pos:R:3 pbc="F F F"
N      27.00500000      33.47000000      37.99000000 
C      26.55500000      33.16700000      36.40000000 
C      27.83200000      34.06700000      35.05200000 
O      27.67500000      33.90800000      35.13700000 
C      25.12100000      34.00500000      36.38000000 
C      24.82600000      33.67800000      34.99100000 
C      24.17600000      32.55800000      37.33000000 
H      26.58600000      33.78100000      38.57000000 
H      26.69000000      32.41500000      36.24800000 
H      25.02100000      34.57600000      36.97300000 
H      23.47800000      34.17500000      35.00000000 
H      25.22400000      34.80500000      34.50300000 
H      24.79400000      33.16500000      34.48400000 
H      23.23700000      32.99400000      37.14400000 
H      24.28900000      31.80200000      36.64300000 
H      24.51500000      32.53000000      38.05600000 
N      30.65200000      32.16400000      34.94000000 
C      30.41600000      31.43700000      34.03100000 
C      30.59900000      31.82600000      32.08200000 
O      30.90300000      31.43700000      31.78800000 
C      29.26100000      30.06000000      33.98700000 
O      28.11800000      30.96200000      33.72200000 
C      29.07800000      29.72400000      35.49500000 
H      29.99000000      32.39000000      35.52800000 
H      31.51000000      30.49900000      33.78800000 
H      29.47200000      29.52000000      33.20500000 
H      27.87200000      31.68500000      34.11000000 
H      28.47500000      28.86500000      35.29200000 
H      30.29300000      28.97500000      35.57300000 
H      29.07300000      30.19100000      36.09300000 
N      33.00000000      25.73800000      25.72400000 
C      32.66000000      24.46800000      26.35600000 
C      34.05600000      23.47700000      25.95300000 
O      34.31900000      22.88400000      26.57800000 
C      31.34200000      24.24600000      26.14000000 
C      30.33000000      24.83100000      26.78800000 
C      29.33900000      25.46100000      26.11200000 
C      30.35600000      25.33400000      28.08800000 
C      28.11000000      26.16200000      26.54400000 
C      29.68600000      25.94300000      29.00100000 
C      28.28700000      26.69300000      28.13800000 
O      27.47200000      27.21700000      28.64000000 
H      32.14000000      26.32900000      25.22500000 
H      32.92700000      24.55800000      27.29000000 
H      31.04900000      23.99000000      24.98800000 
H      31.21700000      22.92400000      26.42900000 
H      29.07500000      25.18700000      24.99700000 
H      31.28400000      24.89600000      28.70900000 
H      27.46300000      26.57900000      26.18500000 
H      29.59300000      26.27900000      29.60100000 
H      26.72600000      27.52200000      28.24100000 
N      29.13600000      13.76300000      22.15200000 
C      28.19600000      13.59900000      23.22700000 
C      27.67400000      12.41200000      23.28400000 
O      26.97500000      11.56600000      22.44900000 
C      26.75300000      14.73500000      23.10800000 
C      27.18400000      16.08700000      23.06300000 
C      25.85900000      14.56200000      23.87600000 
C      26.49100000      16.89100000      22.20600000 
H      28.59000000      13.20300000      21.15400000 
H      28.65400000      13.98500000      23.99300000 
H      26.53200000      14.40400000      21.94100000 
H      27.42400000      16.36500000      24.04000000 
H      28.55700000      16.16700000      22.62600000 
H      25.01800000      15.07300000      23.85500000 
H      25.25700000      13.34800000      23.83800000 
H      26.11600000      14.48200000      24.99400000 
H      26.85800000      18.17500000      22.40400000 
H      26.63200000      16.86100000      21.15400000 
H      25.49700000      17.00300000      22.48300000 
N      27.79000000      11.48700000      24.73700000 
C      27.50600000      10.34700000      25.06000000 
C      26.06900000      10.34700000      25.64600000 
O      26.39500000      10.97300000      27.22000000 
C      28.66500000       9.69100000      25.71900000 
C      29.11200000       9.81700000      26.98100000 
O      29.43700000       9.66500000      27.67400000 
O      29.66400000      11.59900000      26.64800000 
H      28.45000000      12.18500000      25.25300000 
H      27.08300000       9.83400000      24.07400000 
H      28.19800000       8.61200000      25.95400000 
H      29.26800000       9.36200000      24.91000000 
N      25.13600000      10.17000000      25.52700000 
C      23.86100000       9.90900000      26.13200000 
C      23.37500000       8.58600000      26.34600000 
O      24.08600000       7.79800000      26.18800000 
C      22.69200000      11.11900000      25.74000000 
C      22.41800000      12.17800000      26.78300000 
C      23.25700000      12.73700000      27.68000000 
C      21.09600000      13.19100000      26.08500000 
H      25.02800000       9.71000000      24.54300000 
H      24.06700000      10.28600000      27.24400000 
H      23.54200000      11.88300000      24.95000000 
H      22.16900000      10.86100000      25.12500000 
H      21.82300000      11.56700000      27.53800000 
H      22.96400000      13.62100000      28.19900000 
H      24.09000000      12.43900000      27.89000000 
H      24.03900000      13.78100000      26.58900000 
H      20.86800000      13.68200000      26.80200000 
H      21.73900000      13.69000000      25.35800000 
H      20.52700000      12.55600000      25.71500000 
N      27.94500000      27.78300000      20.99600000 
C      26.55700000      27.81300000      21.62000000 
C      25.59700000      27.31400000      20.49100000 
O      24.58600000      26.31900000      21.11600000 
C      26.07200000      29.03500000      21.94800000 
C      24.86500000      29.34400000      22.99100000 
C      25.17700000      28.72500000      24.36100000 
N      24.22600000      27.47100000      24.85500000 
C      23.76700000      27.24900000      26.12400000 
N      24.27200000      27.97800000      27.17300000 
N      23.15200000      26.50200000      26.47700000 
H      28.19400000      28.51900000      20.75700000 
H      26.62700000      27.00100000      22.50700000 
H      27.15000000      29.58900000      22.70500000 
H      26.01800000      29.77500000      21.32400000 
H      24.62100000      30.08000000      23.13300000 
H      24.21200000      28.64700000      22.66100000 
H      26.28900000      28.24100000      24.55800000 
H      25.18200000      29.44700000      25.14600000 
H      24.00500000      27.06900000      24.14500000 
H      24.91400000      28.78100000      27.07700000 
H      23.93700000      27.81500000      28.00100000 
H      22.53500000      25.72500000      25.22600000 
H      22.69800000      26.07300000      27.10300000 
N      25.98900000      23.41800000      19.84800000 
C      25.24900000      22.32000000      21.38700000 
C      23.90200000      22.13800000      21.35700000 
O      23.21200000      21.50100000      21.67700000 
C      26.07800000      22.78400000      22.42800000 
C      25.51200000      22.41600000      23.97600000 
C      27.74200000      22.66700000      22.58600000 
H      26.31400000      23.80400000      20.25400000 
H      25.53900000      21.28000000      21.16400000 
H      26.14400000      23.94800000      22.56900000 
H      26.03300000      22.62300000      24.65900000 
H      24.47300000      22.73900000      23.94200000 
H      25.36400000      21.17200000      23.81500000 
H      28.08100000      22.69600000      23.25400000 
H      27.63700000      21.10800000      22.50700000 
H      28.05000000      22.66500000      21.60800000 
N      17.48200000       8.40100000      31.05100000 
C      19.11900000       8.97700000      31.07500000 
C      19.93400000       8.24900000      32.43400000 
O      19.25700000       8.27000000      33.44000000 
C      18.87900000      10.41500000      31.46200000 
C      18.48900000      11.05300000      32.40300000 
C      20.61100000      11.23800000      30.83400000 
H      16.98000000       8.94700000      31.33400000 
H      19.54800000       8.69700000      30.21800000 
H      18.28600000      10.79500000      30.22000000 
H      18.04200000      12.13400000      32.33800000 
H      17.06900000      10.54500000      32.62100000 
H      18.71000000      10.87300000      33.29100000 
H      20.18500000      12.19000000      31.04000000 
H      20.89300000      10.95300000      31.91600000 
H      20.68300000      10.91200000      30.34000000 
N      20.82500000       8.11200000      32.06900000 
C      21.78000000       7.39600000      33.39000000 
C      22.68800000       8.53200000      34.06800000 
O      23.58200000       8.81200000      33.95200000 
C      22.85800000       6.45900000      32.45400000 
C      23.11000000       7.22200000      31.35100000 
C      21.83900000       7.91500000      30.87300000 
H      21.22300000       6.86400000      33.88700000 
H      23.80600000       6.39400000      33.16300000 
H      22.41600000       5.59400000      32.41800000 
H      23.82700000       8.00200000      31.32000000 
H      23.50000000       6.51300000      30.42200000 
H      21.83300000       8.66700000      30.35500000 
H      21.16500000       7.09500000      30.21200000 
N      21.66500000       9.17400000      34.91500000 
C      22.16300000      10.15200000      35.94900000 
C      23.13000000       9.70300000      36.97200000 
O      23.04500000       8.62100000      37.32600000 
C      20.76100000      11.15400000      36.38800000 
H      20.73600000       8.85800000      35.02800000 
H      22.69200000      11.00300000      35.13800000 
H      21.24200000      11.63600000      37.05000000 
H      20.39000000      11.15700000      35.90100000 
H      20.42000000      10.07200000      37.15300000 
N      24.03300000      10.69900000      37.33300000 
C      24.80000000      10.42000000      38.54800000 
C      24.32800000      11.29100000      39.50200000 
O      24.00200000      12.60300000      39.48900000 
C      26.20300000      10.99400000      38.24900000 
C      26.89800000       9.96200000      37.14700000 
C      26.56200000      10.35000000      35.74600000 
N      27.67400000      10.44400000      34.94100000 
C      27.77100000      11.14100000      33.51000000 
N      26.18400000      11.16300000      33.40300000 
N      28.78300000      11.26200000      32.90700000 
H      23.99900000      11.58500000      36.93700000 
H      24.82100000       9.42800000      38.74100000 
H      26.32800000      11.91500000      38.04200000 
H      26.85000000      10.76500000      39.21100000 
H      28.19300000      10.42400000      37.26100000 
H      27.03800000       9.10300000      37.39500000 
H      25.98700000       9.72200000      35.45300000 
H      26.08500000      11.29900000      35.69800000 
H      28.60600000      10.19900000      35.15100000 
H      25.77200000      11.14000000      33.44600000 
H      26.44000000      11.98900000      32.00900000 
H      29.68200000      11.12400000      33.31400000 
H      28.75600000      11.72200000      32.09500000 
N      24.01200000      10.45000000      40.91200000 
C      23.34500000      11.16100000      41.86100000 
C      24.15700000      11.45200000      43.26800000 
O      24.76600000      10.20400000      43.53800000 
C      22.07500000      10.37700000      42.15800000 
C      21.10100000      11.05000000      43.26300000 
S      19.59000000       9.85900000      43.55100000 
C      18.91600000       9.31800000      42.10500000 
H      24.22600000       9.80300000      40.88600000 
H      22.99400000      12.26800000      41.67200000 
H      21.53200000      10.25300000      41.22400000 
H      22.34100000       9.38300000      42.51700000 
H      21.51800000      11.16500000      44.12500000 
H      20.64200000      11.88600000      42.87300000 
H      17.85100000       9.19400000      42.13600000 
H      18.70300000      10.67800000      41.38900000 
H      19.38400000       8.94600000      41.37200000 
N      23.53600000      17.05700000      44.22200000 
C      23.84500000      17.61900000      43.08600000 
C      23.60800000      16.76800000      41.98200000 
O      23.98400000      14.85400000      42.56500000 
C      25.63600000      17.81500000      43.29300000 
C      26.32400000      18.01100000      41.74900000 
C      27.52100000      18.67800000      42.44600000 
C      28.79900000      17.52800000      42.76600000 
N      29.86100000      18.19300000      43.33500000 
H      23.47600000      16.44000000      44.67800000 
H      23.62800000      18.38600000      42.60900000 
H      25.63800000      18.47200000      43.89900000 
H      25.92200000      16.85500000      43.67700000 
H      26.37600000      17.23400000      41.34200000 
H      25.78300000      18.81700000      41.37800000 
H      28.24300000      18.92700000      41.19700000 
H      27.63400000      19.46400000      42.79800000 
H      28.22000000      17.32700000      43.88600000 
H      28.74500000      16.74600000      42.32200000 
H      30.60900000      17.53800000      43.54400000 
H      30.47400000      18.52900000      42.21200000 
H      29.94300000      19.00900000      43.68900000 
N      23.28800000      16.68000000      40.76000000 
C      23.18800000      15.67400000      39.87900000 
C      24.06600000      15.87300000      38.21300000 
O      23.79500000      17.32200000      38.24800000 
C      21.71700000      15.12200000      39.61000000 
C      21.11200000      14.34700000      40.44800000 
C      20.01600000      13.69000000      40.11700000 
O      19.69900000      12.57400000      39.74700000 
N      18.81500000      14.66800000      40.06600000 
H      23.11200000      17.61900000      40.64100000 
H      23.60500000      14.88300000      40.09900000 
H      21.07300000      16.31500000      39.38000000 
H      21.66600000      14.89900000      38.50800000 
H      21.74600000      13.55700000      40.58700000 
H      20.99700000      14.83700000      41.41800000 
H      18.82800000      15.56700000      40.27100000 
H      17.74800000      14.19500000      39.60500000 
N      24.28400000      15.51600000      38.04400000 
C      25.15700000      15.37200000      36.51300000 
C      24.56900000      14.74400000      35.56100000 
O      24.11300000      13.18700000      35.77000000 
C      26.63200000      15.26200000      36.73200000 
C      27.26900000      15.96900000      37.47200000 
C      27.26000000      15.04100000      35.14000000 
C      28.75400000      15.70200000      38.01200000 
H      24.43500000      14.22700000      38.23300000 
H      25.03300000      16.43100000      36.29200000 
H      26.71500000      13.99600000      37.37600000 
H      27.40700000      17.06800000      36.85900000 
H      26.69000000      16.43500000      38.37500000 
H      28.46700000      14.63000000      35.49900000 
H      26.87400000      13.84500000      34.82800000 
H      27.17100000      15.56000000      34.79000000 
H      29.17600000      16.60400000      38.68100000 
H      28.67400000      14.88700000      38.65000000 
H      29.39300000      15.56100000      37.27000000 
N      24.00900000      14.51600000      34.29800000 
C      23.70100000      14.44300000      33.27600000 
C      24.24900000      14.70900000      31.97900000 
O      24.78000000      13.18900000      31.23000000 
C      22.21800000      15.07400000      32.99600000 
C      21.19200000      14.69700000      33.97200000 
C      21.33500000      16.26000000      34.79200000 
C      20.33500000      13.93100000      34.18300000 
C      20.17100000      16.24200000      36.12600000 
C      19.23300000      14.21500000      35.37100000 
C      19.46700000      15.41800000      35.92800000 
O      18.29300000      15.43900000      37.03100000 
H      24.47800000      16.42800000      34.21400000 
H      23.56700000      13.31600000      33.53600000 
H      22.23800000      15.82100000      32.42400000 
H      21.70300000      14.09500000      32.10000000 
H      21.97500000      16.79900000      34.72200000 
H      20.19900000      13.27900000      33.75100000 
H      20.36300000      17.13200000      36.45000000 
H      18.50500000      13.45100000      35.48100000 
H      18.52200000      16.23300000      37.66800000 
N      24.74000000      15.41800000      31.17400000 
C      24.95400000      15.80300000      30.22200000 
C      26.50200000      16.18100000      29.86700000 
O      27.01300000      17.03500000      30.55800000 
C      24.07400000      17.16600000      29.64500000 
C      24.10700000      17.37200000      28.07500000 
C      25.02700000      18.22000000      27.59000000 
C      23.05100000      16.87200000      27.21600000 
C      25.11900000      18.76500000      26.04900000 
C      23.16300000      17.22000000      25.99800000 
C      23.63600000      18.00800000      25.30400000 
O      23.72100000      18.37300000      23.95600000 
H      24.44200000      16.66800000      32.13900000 
H      24.67300000      15.00900000      29.44600000 
H      23.20000000      16.99700000      29.90000000 
H      24.60400000      18.02300000      30.07800000 
H      25.81000000      18.77500000      28.05800000 
H      22.38200000      16.16900000      27.79500000 
H      25.50000000      19.20300000      25.72000000 
H      22.09200000      16.69100000      25.31800000 
H      24.25200000      18.88800000      23.70800000 
N      27.10000000      15.25200000      29.24800000 
C      28.62400000      15.13800000      29.23800000 
C      29.04400000      15.57900000      27.39400000 
O      28.48400000      14.84600000      26.83800000 
C      29.08600000      13.97300000      29.69300000 
O      28.71700000      13.53400000      30.78300000 
C      30.80100000      13.96000000      29.58600000 
H      26.65400000      14.44600000      28.69100000 
H      28.98800000      15.95900000      29.76400000 
H      28.72300000      13.02900000      28.88600000 
H      29.04300000      14.01200000      31.47000000 
H      31.05600000      12.78700000      29.92300000 
H      31.06600000      13.89500000      28.49300000 
H      31.03500000      14.46300000      30.02600000 
N      29.94100000      16.53700000      27.59900000 
C      30.52500000      16.78800000      26.18100000 
C      32.15200000      16.19200000      26.31700000 
O      32.58500000      16.80800000      27.11500000 
C      30.02300000      18.26000000      25.82700000 
C      30.93700000      18.29900000      24.42500000 
C      29.06300000      18.81800000      25.92100000 
H      30.22500000      16.92900000      28.16600000 
H      29.91500000      16.18300000      25.39400000 
H      31.00600000      18.89900000      26.63800000 
H      30.79300000      19.83200000      24.18500000 
H      32.01000000      18.37000000      24.32700000 
H      30.39300000      18.08500000      23.72300000 
H      28.82000000      19.78500000      25.71200000 
H      28.24500000      18.20600000      25.20800000 
H      28.45300000      18.57300000      27.00500000 
N      32.32400000      15.77700000      25.24500000 
C      33.69500000      15.28600000      25.10500000 
C      34.20600000      15.86300000      23.56100000 
O      33.87100000      16.09400000      23.05900000 
C      34.08800000      13.98800000      25.33200000 
O      33.50200000      13.01200000      24.14700000 
H      31.93400000      15.36400000      24.49300000 
H      34.34100000      15.75500000      26.02200000 
H      35.19900000      13.51200000      25.38400000 
H      33.54500000      13.41700000      26.24100000 
H      33.45100000      12.28700000      24.24200000 
N      36.53700000      17.75400000      28.77300000 
C      35.25500000      17.54100000      28.78900000 
C      34.35200000      18.29600000      29.65300000 
O      35.27000000      19.52500000      30.63900000 
C      34.78900000      16.23400000      29.32100000 
O      35.84400000      16.03700000      30.68100000 
H      37.18200000      17.35100000      29.19100000 
H      34.59900000      17.55400000      27.95300000 
H      34.01000000      15.87500000      29.55400000 
H      35.42300000      15.40200000      28.65600000 
H      35.78200000      15.12700000      30.98000000 
N      33.03800000      18.62800000      29.73600000 
C      32.44300000      19.51400000      30.65500000 
C      31.09500000      18.66500000      30.86900000 
O      30.52200000      18.05700000      30.09900000 
C      32.03000000      20.98900000      30.02000000 
C      31.34100000      20.78800000      28.65500000 
C      31.65400000      21.92000000      30.91800000 
H      32.68300000      18.01000000      29.13400000 
H      32.88600000      19.61000000      31.55000000 
H      33.26800000      21.21400000      29.79200000 
H      31.40100000      21.86000000      28.23400000 
H      31.95900000      20.22500000      27.89300000 
H      30.55800000      20.53200000      28.76100000 
H      31.60600000      22.87700000      30.51500000 
H      30.43100000      21.67300000      31.09800000 
H      32.03800000      21.91600000      31.92500000 
N      30.45400000      19.10600000      32.09300000 
C      29.12600000      18.37500000      32.44200000 
C      28.03700000      19.52400000      32.81900000 
O      28.54600000      20.56900000      33.46100000 
C      29.37700000      17.50800000      34.02400000 
H      31.03300000      19.72000000      32.76500000 
H      28.91300000      17.86700000      31.88600000 
H      28.69700000      17.36400000      34.21300000 
H      30.19600000      16.92800000      33.64500000 
H      30.01300000      18.35100000      34.57200000 
N      27.22200000      19.05000000      32.36600000 
C      25.84300000      20.42800000      33.12800000 
C      25.00300000      19.49900000      33.66100000 
O      24.88000000      17.89000000      33.88700000 
C      24.71700000      20.43100000      31.84300000 
C      25.27900000      21.34700000      30.63500000 
C      26.82300000      21.63500000      30.20200000 
C      24.34900000      21.96300000      29.66700000 
C      26.95500000      22.50000000      29.03600000 
C      24.84600000      22.61600000      28.81000000 
C      25.72400000      22.87000000      28.51500000 
O      26.35600000      23.74500000      27.27000000 
H      26.81300000      18.57500000      32.01900000 
H      26.08700000      20.75600000      33.20900000 
H      24.47500000      19.47700000      31.24200000 
H      24.07400000      20.86500000      32.08000000 
H      27.43600000      21.17200000      30.85900000 
H      23.29100000      21.74300000      30.02300000 
H      28.03600000      22.56400000      28.96900000 
H      23.80900000      23.19200000      28.02400000 
H      27.09200000      23.88400000      27.08700000 
N      24.19000000      20.08500000      34.81700000 
C      23.11700000      19.49500000      35.56700000 
C      22.73300000      20.42100000      36.66900000 
O      22.42100000      21.69900000      36.02600000 
H      24.33200000      21.09000000      34.67400000 
H      22.58200000      18.98500000      35.18200000 
H      23.88700000      18.66000000      36.31700000 
N      22.39100000      20.11300000      37.91200000 
C      21.80200000      21.02600000      38.56600000 
C      22.28600000      21.13600000      40.06200000 
O      22.64400000      19.56200000      40.54900000 
C      20.17400000      21.03900000      38.70500000 
C      19.37000000      19.65200000      38.61800000 
C      18.22100000      19.83000000      38.70600000 
N      17.43300000      18.74300000      38.63000000 
C      16.46300000      17.25100000      39.60500000 
N      16.05700000      16.98600000      38.76700000 
N      17.28600000      17.83300000      40.85100000 
H      22.61100000      19.33000000      38.05700000 
H      21.99700000      21.90700000      38.50500000 
H      19.82000000      21.63900000      39.45600000 
H      19.92800000      21.38400000      37.80200000 
H      19.84600000      18.98700000      37.95900000 
H      19.94500000      18.99700000      39.80200000 
H      17.63500000      20.18600000      39.80700000 
H      17.70500000      20.45200000      38.08800000 
H      16.92100000      18.41100000      37.38100000 
H      15.63500000      16.67100000      38.20500000 
H      15.55100000      16.01600000      39.69400000 
H      17.71500000      18.26700000      40.94800000 
H      16.77800000      17.19600000      41.17200000 
N      21.31000000      26.45800000      41.09800000 
C      22.05200000      26.81700000      39.83900000 
C      21.39900000      26.22400000      38.97600000 
O      21.82200000      27.01200000      37.41700000 
C      23.59900000      26.10200000      40.09000000 
C      24.44600000      26.89200000      39.36500000 
C      24.94900000      28.14500000      39.28600000 
C      25.77900000      25.95500000      39.65600000 
H      21.51600000      25.57700000      41.71300000 
H      22.16200000      27.83400000      39.96600000 
H      23.81400000      26.41100000      41.29600000 
H      23.43600000      25.09500000      40.08500000 
H      24.40300000      26.39100000      38.15500000 
H      25.55800000      28.55400000      38.78200000 
H      23.77900000      28.80000000      38.85900000 
H      24.92600000      28.57300000      40.34000000 
H      26.81800000      26.36300000      38.88500000 
H      26.27800000      26.37800000      40.65300000 
H      25.88200000      24.95400000      39.60800000 
N      20.61900000      25.55400000      38.83700000 
C      19.67800000      24.62800000      37.53600000 
C      18.89500000      25.53200000      36.96100000 
O      18.32400000      25.31100000      35.63300000 
H      20.27200000      24.99300000      39.54200000 
H      20.74200000      24.75700000      36.62700000 
H      19.56900000      24.00000000      37.68500000 
N      12.63900000      14.49200000      37.27300000 
C      13.63300000      13.18400000      36.96400000 
C      13.86700000      13.06000000      35.37100000 
O      14.91800000      12.65000000      34.92000000 
C      13.11700000      11.78400000      37.64300000 
O      13.80900000      10.87600000      37.10400000 
H      12.08600000      14.13200000      37.59200000 
H      14.62400000      13.33300000      37.25800000 
H      12.92900000      12.08100000      38.45300000 
H      11.92700000      11.82400000      37.06100000 
H      13.47300000      10.01600000      37.48900000 
N      12.84100000      13.26800000      34.51600000 
C      12.76400000      13.04100000      33.20600000 
C      13.52600000      14.33100000      32.52900000 
O      12.87700000      15.45500000      32.30300000 
C      11.66700000      13.12600000      32.28000000 
C      10.67000000      11.58700000      33.24700000 
C      11.23400000      10.27100000      32.91500000 
N      10.28200000       9.14600000      32.10400000 
C       9.78000000       8.92500000      33.28300000 
N       8.44100000       7.68100000      33.13200000 
N       9.35500000       8.76300000      34.48400000 
H      11.92800000      13.67000000      35.00500000 
H      13.49900000      12.20300000      32.88900000 
H      10.84400000      13.85700000      32.72900000 
H      11.55800000      12.88800000      31.54100000 
H      10.43800000      11.81900000      33.93400000 
H       9.62000000      11.72800000      32.33500000 
H      12.07300000      10.41000000      31.75100000 
H      11.96800000      10.11400000      33.49600000 
H      10.33200000       9.13600000      31.67900000 
H       8.60800000       7.59900000      31.65300000 
H       8.17900000       7.43100000      33.18500000 
H      10.31000000       9.64000000      34.97400000 
H       9.02000000       8.54300000      35.10600000 
N      14.83700000      14.34000000      32.24600000 
C      15.91200000      15.06500000      31.77100000 
C      15.88100000      15.37500000      30.37500000 
O      16.46200000      14.92100000      29.64400000 
C      16.88800000      15.00100000      32.13600000 
C      17.97500000      16.64100000      32.32100000 
C      17.93100000      17.56700000      33.11600000 
C      18.97100000      16.83100000      31.09500000 
C      18.46000000      18.41600000      33.11000000 
C      19.42300000      17.54800000      31.30500000 
C      19.54400000      18.68800000      31.84500000 
H      15.32600000      13.36900000      32.48800000 
H      15.07900000      16.43100000      32.23000000 
H      16.94500000      14.97800000      33.50300000 
H      17.51100000      14.52400000      31.94500000 
H      17.07500000      17.40400000      33.99300000 
H      18.93700000      15.82500000      30.45600000 
H      18.52200000      19.48400000      33.87200000 
H      20.38200000      17.86000000      30.24600000 
H      20.21100000      19.69800000      32.02800000 
N      14.12700000      16.16200000      29.80300000 
C      14.14700000      16.22500000      28.26500000 
C      14.35600000      17.54900000      28.09700000 
O      15.64700000      18.31300000      28.07200000 
C      13.25700000      15.35400000      27.95200000 
O      12.09100000      16.08600000      28.55300000 
C      13.36300000      13.94200000      27.75000000 
H      14.01400000      16.19500000      30.15400000 
H      15.26000000      15.74600000      27.81500000 
H      12.99500000      15.70600000      26.65900000 
H      11.03600000      15.43000000      28.30800000 
H      12.30300000      13.46900000      27.53000000 
H      13.99900000      13.58700000      27.45800000 
H      13.29800000      13.66200000      29.00400000 
N      12.87600000      20.63100000      32.12600000 
C      13.99000000      21.29500000      33.16000000 
C      15.54100000      21.84600000      32.27600000 
O      15.81200000      20.46400000      31.63700000 
C      14.07600000      20.26000000      34.03700000 
C      13.07300000      20.25300000      35.29300000 
N      13.29600000      21.14200000      36.58700000 
C      12.03300000      19.59100000      35.08900000 
C      12.02400000      20.59500000      36.64500000 
N      11.17900000      20.02600000      36.56800000 
H      13.44700000      19.66900000      31.68200000 
H      13.58300000      22.16000000      33.35900000 
H      14.61100000      19.41000000      33.98800000 
H      15.35600000      20.90500000      34.92800000 
H      13.78900000      21.48000000      36.75100000 
H      11.61400000      19.02700000      34.47600000 
H      11.64600000      21.23400000      38.23200000 
N      15.58500000      22.33800000      32.22200000 
C      17.14900000      23.15500000      31.80100000 
C      18.32100000      22.62700000      32.26500000 
O      18.25000000      22.43100000      33.61300000 
C      16.68800000      24.28300000      31.21400000 
C      16.26100000      24.93800000      32.42300000 
C      15.30500000      24.03200000      32.86400000 
H      17.08500000      22.30800000      30.51200000 
H      18.17700000      25.04500000      31.02800000 
H      16.39700000      24.62600000      30.35200000 
H      16.92900000      25.24200000      33.28100000 
H      15.73200000      25.97200000      32.26500000 
H      15.13800000      23.84500000      33.91100000 
H      14.24700000      24.10700000      32.43600000 
N      19.41200000      22.59500000      32.12300000 
C      20.89200000      22.28400000      32.08400000 
C      21.59300000      24.03700000      32.19900000 
O      21.37400000      24.48500000      31.82800000 
H      19.48200000      22.85900000      30.44500000 
H      20.57200000      22.02800000      33.46500000 
H      21.21900000      21.84000000      31.88200000 
N      22.63200000      23.60100000      33.12900000 
C      23.39800000      24.88600000      33.42400000 
C      24.99900000      23.97600000      33.73200000 
O      24.91300000      23.12600000      34.36100000 
C      23.08000000      25.56800000      34.46300000 
C      23.15100000      27.17100000      34.28300000 
C      24.39800000      27.91500000      35.05400000 
C      23.03600000      27.90100000      33.05500000 
H      22.83100000      22.85900000      33.77300000 
H      23.65600000      25.32800000      32.37400000 
H      22.01800000      25.46900000      34.50000000 
H      23.43500000      25.34800000      35.45000000 
H      22.41700000      27.60300000      35.12300000 
H      24.48300000      28.86100000      34.96400000 
H      24.67300000      27.44200000      36.02000000 
H      25.41400000      27.45400000      34.28700000 
H      22.68100000      28.84000000      33.11000000 
H      23.52200000      27.62300000      32.36800000 
H      21.79800000      27.36000000      32.62500000 
N      26.15300000      24.94500000      33.04900000 
C      27.38200000      24.03400000      33.69200000 
C      27.61700000      23.98200000      35.00400000 
O      27.43500000      24.61400000      35.73000000 
C      28.27800000      25.01500000      33.12200000 
C      27.68600000      25.60000000      31.53700000 
C      26.39900000      25.79100000      32.56200000 
H      27.45800000      23.10600000      33.05600000 
H      28.66300000      25.77800000      33.68100000 
H      29.37100000      24.52100000      32.67700000 
H      28.09700000      26.59100000      31.48400000 
H      27.72600000      25.04500000      31.00900000 
H      26.06300000      26.64800000      32.63900000 
H      25.40800000      25.61200000      31.28400000 
N      28.16900000      22.88100000      35.33400000 
C      28.62100000      22.47900000      36.93900000 
C      30.13700000      22.46800000      36.55300000 
O      30.91700000      23.36100000      36.46300000 
C      28.40900000      21.37500000      37.22500000 
C      26.31100000      21.21100000      37.27300000 
C      28.58600000      20.72700000      38.78400000 
C      26.06800000      22.26100000      38.26900000 
H      28.29600000      21.95100000      34.62900000 
H      28.59700000      23.12900000      37.18500000 
H      28.34000000      20.25200000      36.76500000 
H      26.25500000      21.28700000      36.34100000 
H      26.17800000      20.31300000      37.66100000 
H      28.10700000      20.22800000      39.23900000 
H      29.65900000      20.74300000      38.77900000 
H      28.44700000      21.98300000      39.41900000 
H      24.75000000      22.30700000      38.03300000 
H      26.16600000      22.31100000      39.06700000 
H      26.20600000      23.40300000      37.71700000 
H      27.24142275      32.69799691      38.38763741 
H      28.33284718      34.89248802      35.31223383 
H      31.28873227      31.79781324      35.46007622 
H      30.17729679      32.64550200      31.69394991 
H      33.34840858      26.29562161      26.33854829 
H      34.51104539      23.58983507      25.06970959 
H      29.27576528      14.64006360      22.00631160 
H      22.42573705       8.44108111      26.62510278 
H      28.53794441      27.47136052      21.59708050 
H      25.70907723      27.64854498      19.55530862 
H      26.47149113      22.88688010      19.30475608 
H      23.31833652      22.80014009      20.88699208 
H      17.24474213       8.20531832      30.20517650 
H      24.11654300      12.35742918      43.69056507 
H      24.03313836      17.41690240      44.88027328 
H      35.17833083      15.87270829      23.32759367 
H      36.84777545      17.65363868      27.93434261 
H      22.32414664      22.02881180      40.51081167 
H      21.40211966      27.12041349      41.70026434 
H      18.68426797      26.38599987      37.43668501 
H      13.06722048      15.07482348      37.80867155 
H      13.57938023      18.16501101      27.96512063 
H      12.13486415      20.40838574      32.58552208 
H      30.59080606      21.60436133      36.33348165 
