511
Properties=species:S:1:pos:R:3 pbc="F F F"
N      11.26200000      10.45400000      25.22800000 
C      11.06200000      10.76500000      26.29400000 
C       9.74500000      11.27200000      26.71100000 
O       8.94300000      11.65100000      25.64500000 
C      12.16900000      11.59700000      26.51700000 
C      13.32400000      11.69200000      26.78400000 
C      13.93100000      11.02600000      27.43400000 
C      14.18000000      12.06100000      25.89000000 
C      15.32900000      10.71100000      28.00900000 
C      16.06800000      11.90700000      26.03600000 
C      16.06300000      11.22300000      27.05300000 
O      17.47600000      11.02200000      27.26300000 
H      11.27100000      10.95400000      24.08900000 
H      11.35400000       9.88600000      27.11800000 
H      11.70800000      12.75400000      25.65700000 
H      11.52300000      12.48600000      27.64300000 
H      13.05400000      10.48300000      28.64000000 
H      13.92900000      12.80800000      24.84900000 
H      15.54800000      10.18700000      28.68800000 
H      16.25600000      12.34100000      25.32300000 
H      17.71000000      10.53800000      27.81600000 
N      22.40900000      22.83500000      23.44100000 
C      23.56200000      21.83300000      24.30800000 
C      24.58900000      22.21400000      23.35000000 
O      24.53200000      22.53100000      21.73300000 
C      23.18700000      20.60700000      23.97400000 
C      21.63300000      20.39000000      24.70000000 
C      20.49100000      20.35000000      24.61600000 
C      21.72400000      19.95900000      26.13600000 
N      19.55500000      20.10900000      25.45200000 
C      20.69400000      19.77100000      26.68100000 
C      23.17200000      19.69600000      27.21100000 
C      20.47000000      19.40900000      27.91500000 
C      22.67100000      19.45300000      28.20900000 
C      21.56300000      19.14200000      28.95200000 
H      21.89800000      22.83400000      22.79400000 
H      23.62400000      22.20100000      24.98500000 
H      22.61900000      20.50200000      22.82900000 
H      23.58200000      20.06800000      23.96700000 
H      19.98200000      20.59400000      23.63600000 
H      18.90900000      19.95300000      25.72900000 
H      23.97000000      19.95100000      26.66500000 
H      19.35000000      19.25600000      28.34500000 
H      23.60400000      19.23800000      28.96000000 
H      21.36500000      18.91500000      29.71100000 
N      25.78300000      22.26600000      23.73800000 
C      26.90900000      22.22900000      23.27600000 
C      28.05500000      21.46900000      23.44700000 
O      28.05700000      20.81700000      24.49700000 
C      27.76400000      24.03700000      23.41000000 
H      25.89700000      22.16000000      24.81100000 
H      26.80100000      22.31800000      21.92100000 
H      28.42500000      23.96100000      22.82700000 
H      26.93900000      24.48400000      23.04400000 
H      27.74400000      23.92000000      24.21300000 
N      29.10200000      21.18800000      22.54900000 
C      30.23300000      20.13900000      22.93700000 
C      30.99300000      21.08000000      23.70200000 
O      31.54700000      22.27600000      23.47000000 
C      31.05200000      20.02900000      21.61500000 
C      31.96000000      19.47000000      21.93900000 
O      32.42400000      18.59800000      22.75800000 
O      33.44800000      20.01700000      20.98600000 
H      28.98700000      21.70100000      21.69200000 
H      29.87000000      19.57500000      23.24600000 
H      30.27600000      19.34700000      20.92400000 
H      31.05300000      21.08600000      20.96000000 
N      31.65100000      20.60700000      25.04600000 
C      32.41900000      20.95300000      25.75400000 
C      33.58500000      21.79000000      25.12200000 
O      34.15900000      22.56800000      25.25300000 
C      32.81900000      20.15700000      27.06100000 
C      31.45000000      19.09600000      26.73700000 
C      31.18200000      19.32900000      25.42500000 
H      31.96200000      22.10200000      26.20500000 
H      33.49500000      19.64200000      26.55900000 
H      32.93700000      20.47800000      27.56100000 
H      31.70600000      18.33600000      27.22000000 
H      30.76000000      19.66500000      27.48800000 
H      31.44400000      18.49900000      24.90500000 
H      29.88700000      19.10800000      25.34600000 
N      33.29200000      24.53900000      22.79200000 
C      32.91000000      26.19000000      23.26600000 
C      34.14000000      26.23600000      24.25900000 
O      34.41100000      27.55900000      24.15600000 
C      32.00500000      25.56200000      24.72700000 
C      31.62100000      26.60300000      25.32800000 
C      31.07000000      28.09100000      24.68100000 
C      30.28400000      26.30500000      26.19200000 
H      32.84200000      23.71100000      23.02700000 
H      32.68200000      26.37300000      22.93500000 
H      30.84400000      25.06900000      23.86300000 
H      32.17900000      24.67100000      25.18000000 
H      32.24100000      26.99700000      25.85000000 
H      30.60700000      28.59500000      25.07900000 
H      31.80700000      28.24700000      23.87200000 
H      30.04600000      27.46300000      23.71800000 
H      30.03400000      27.16000000      27.03100000 
H      29.49200000      25.94400000      25.78800000 
H      30.76000000      25.33800000      27.03400000 
N      20.14800000      18.53500000      21.05000000 
C      20.74000000      17.41800000      21.26700000 
C      19.48500000      16.39900000      22.07100000 
O      19.01300000      15.71400000      20.78200000 
C      21.99500000      17.78000000      22.25200000 
O      22.17500000      16.24800000      22.60200000 
H      19.10300000      19.02800000      21.80400000 
H      20.96900000      17.07500000      20.44600000 
H      22.53900000      18.09400000      21.65300000 
H      21.58900000      18.27500000      23.11500000 
H      23.12800000      16.42400000      23.33400000 
N      19.22800000      16.46700000      23.08600000 
C      18.09600000      15.31100000      23.29000000 
C      16.92400000      16.25900000      22.71500000 
O      16.59000000      17.07700000      22.78700000 
C      17.96300000      15.40600000      24.83000000 
C      19.37300000      15.87100000      25.34800000 
C      19.59100000      16.83700000      24.20900000 
H      18.16100000      14.59100000      22.98800000 
H      17.09000000      16.05200000      25.17300000 
H      17.74600000      14.41400000      25.24200000 
H      19.15200000      16.50000000      26.36800000 
H      19.88800000      15.37300000      25.36300000 
H      19.05600000      17.97200000      24.36800000 
H      20.67500000      17.21500000      24.26500000 
N      17.30400000      10.09100000      21.85100000 
C      18.07200000      10.25500000      23.68500000 
C      19.03900000      10.93000000      23.89500000 
O      20.12700000      11.25600000      22.65900000 
C      18.03400000       8.80300000      23.84300000 
C      18.38400000       8.61900000      25.55200000 
C      18.48300000       7.08900000      25.46800000 
N      18.32200000       6.69100000      27.58100000 
C      18.34600000       6.27400000      27.61500000 
N      18.31400000       4.33100000      27.21400000 
N      18.27500000       5.81800000      29.23800000 
H      17.44000000       9.69000000      21.81500000 
H      17.12600000      10.60800000      24.30700000 
H      17.35600000       8.22500000      23.59600000 
H      19.07000000       8.40000000      23.30300000 
H      19.28500000       8.92600000      25.68500000 
H      17.61800000       9.05600000      25.87800000 
H      17.38100000       6.61800000      25.39700000 
H      19.10600000       6.57500000      25.42400000 
H      18.24000000       7.91300000      27.79000000 
H      18.29200000       4.73400000      26.24500000 
H      18.33000000       3.98300000      27.68500000 
H      18.30800000       6.78600000      29.80200000 
H      18.29000000       5.02500000      29.72600000 
N      19.74500000      11.67600000      25.00400000 
C      20.49300000      11.97000000      25.27300000 
C      21.87900000      11.18700000      24.72100000 
O      21.64700000       9.82500000      25.14000000 
C      20.60900000      12.43000000      26.59300000 
C      22.12700000      13.33200000      27.32200000 
C      23.30200000      13.04700000      27.12100000 
C      21.87700000      14.66900000      27.38700000 
C      24.00400000      13.80800000      27.50200000 
C      22.66200000      15.14700000      27.62600000 
C      23.67900000      14.70500000      27.55100000 
H      18.65500000      11.29500000      25.86600000 
H      20.82200000      13.05900000      24.72700000 
H      19.85000000      12.81600000      27.10700000 
H      20.95600000      11.31300000      27.35400000 
H      23.44900000      11.75700000      26.91800000 
H      20.63100000      14.98800000      27.47900000 
H      25.37200000      13.33100000      27.37300000 
H      22.43800000      16.66200000      28.00800000 
H      25.07500000      15.91200000      28.04100000 
N      22.86100000      11.63000000      24.35500000 
C      23.88200000      10.39400000      23.79700000 
C      24.23200000      10.08200000      25.04100000 
O      24.34600000      10.10000000      26.20700000 
C      24.93300000      11.61200000      23.42800000 
C      24.22100000      12.79100000      22.67100000 
C      23.22200000      13.10800000      23.98500000 
H      23.76300000      10.23900000      23.16400000 
H      25.67000000      12.05900000      24.61200000 
H      25.87200000      11.29000000      22.92500000 
H      24.93200000      13.85800000      22.94000000 
H      24.11200000      12.66100000      22.10200000 
H      23.17000000      13.50100000      24.47500000 
H      22.19400000      13.32300000      23.22800000 
N      24.98600000       8.52300000      24.62400000 
C      25.02700000       7.57400000      25.69400000 
C      26.54600000       7.89300000      26.59100000 
O      26.49000000       7.92000000      27.50800000 
C      25.73000000       6.27800000      24.74800000 
C      26.36900000       5.88200000      23.52400000 
O      26.70500000       7.24200000      23.24800000 
O      26.44200000       5.40600000      23.42900000 
H      25.14400000       8.41800000      23.49900000 
H      24.58100000       7.59600000      26.25000000 
H      25.74100000       5.55700000      25.65800000 
H      24.31700000       5.92200000      24.63300000 
N      27.78400000       8.40900000      25.34200000 
C      28.83400000       7.99100000      26.39300000 
C      29.40900000      10.16200000      26.32400000 
O      30.06500000      10.11800000      27.22200000 
C      30.13900000       7.80000000      25.43000000 
O      29.37600000       6.61700000      25.62600000 
H      27.49500000       8.20100000      24.61400000 
H      28.88700000       8.00300000      27.07700000 
H      29.89800000       8.24100000      24.21000000 
H      30.85100000       7.99200000      25.75400000 
H      30.47000000       5.77700000      24.44100000 
N      28.72800000      10.82600000      25.76000000 
C      29.06900000      12.07500000      25.54300000 
C      28.19600000      12.90000000      26.83000000 
O      27.73900000      12.81100000      27.07000000 
C      28.99100000      12.61100000      24.11600000 
C      29.30300000      11.59400000      23.05900000 
O      30.44100000      11.70400000      23.00800000 
O      28.53700000      11.01300000      22.66300000 
H      27.92900000      10.42700000      24.95700000 
H      30.47400000      12.08900000      25.63000000 
H      27.61700000      12.77000000      24.09600000 
H      29.20800000      13.64000000      24.08400000 
N      29.85100000      14.17600000      26.74200000 
C      28.85100000      15.22500000      27.66200000 
C      28.93300000      16.23700000      26.61000000 
O      29.15000000      16.52900000      25.88300000 
C      30.25000000      15.62700000      28.73900000 
C      30.08500000      14.75800000      29.94100000 
C      31.12100000      13.18800000      29.98000000 
C      29.86500000      14.70400000      31.00800000 
C      30.88100000      12.92100000      30.65500000 
C      29.61900000      14.43300000      32.08800000 
C      30.71700000      12.81700000      31.85200000 
H      30.08400000      14.13300000      26.52500000 
H      28.08800000      14.80200000      28.39500000 
H      30.99800000      15.66500000      28.07900000 
H      29.89000000      16.51300000      28.97700000 
H      31.41400000      13.21300000      28.69300000 
H      29.04000000      15.97400000      31.13900000 
H      31.70500000      11.67800000      30.70700000 
H      29.41000000      14.33600000      32.99400000 
H      30.64100000      12.23500000      32.98800000 
N      27.47200000      17.15600000      27.60500000 
C      27.06900000      18.19300000      26.68000000 
C      27.01000000      19.61000000      27.50300000 
O      26.61500000      19.04900000      29.03000000 
C      25.81300000      18.21100000      26.05400000 
C      26.06200000      16.71100000      24.94700000 
C      26.91800000      17.17100000      23.79800000 
C      25.96800000      18.01800000      22.78300000 
N      26.71000000      18.38900000      21.70200000 
H      27.24500000      16.85800000      28.12600000 
H      28.04200000      18.58500000      25.83300000 
H      25.14200000      17.80300000      26.76500000 
H      25.59100000      18.76200000      25.51600000 
H      26.26300000      16.01700000      25.55100000 
H      24.81800000      16.52600000      24.74500000 
H      27.58900000      17.35000000      24.04400000 
H      26.82700000      16.08400000      23.22500000 
H      25.15100000      17.76200000      22.59000000 
H      26.03000000      19.08500000      23.32700000 
H      26.52100000      18.81000000      20.98300000 
H      27.88300000      18.54000000      21.83500000 
H      26.99500000      17.19300000      21.09600000 
N      27.23300000      20.40800000      26.95800000 
C      27.13200000      21.80900000      27.97800000 
C      25.53800000      22.46700000      27.96300000 
O      25.17000000      22.51500000      26.41800000 
C      28.18300000      22.74000000      27.82900000 
C      27.81500000      24.24200000      28.57300000 
C      29.39800000      21.87700000      27.43400000 
H      27.43500000      20.74500000      26.28400000 
H      27.11900000      21.53000000      29.13300000 
H      27.85300000      23.20300000      26.42100000 
H      28.71100000      24.72800000      28.31100000 
H      27.06200000      24.49900000      28.41400000 
H      28.03300000      23.74000000      29.48200000 
H      30.31800000      23.19800000      27.52400000 
H      29.59400000      21.79500000      28.83700000 
H      29.56300000      21.63200000      27.14100000 
N      25.06400000      22.68200000      28.88700000 
C      23.81600000      22.96100000      28.95100000 
C      23.41000000      24.96700000      29.06400000 
O      23.85100000      25.16600000      29.79900000 
C      22.76900000      22.58000000      29.96700000 
C      21.35100000      22.92900000      30.22500000 
C      20.59200000      22.73800000      29.02900000 
C      20.93500000      22.91300000      31.27300000 
C      19.14000000      23.14100000      28.99200000 
C      19.38500000      23.19600000      31.30100000 
C      18.62100000      23.17600000      30.33300000 
O      17.55000000      23.32400000      30.09300000 
H      25.32100000      22.60200000      29.62100000 
H      23.12500000      22.85700000      27.75700000 
H      23.11200000      21.48300000      29.89600000 
H      23.37400000      22.85000000      30.84000000 
H      21.12800000      22.74800000      27.80100000 
H      21.46900000      22.97500000      32.16200000 
H      18.69500000      23.04900000      28.21400000 
H      19.06300000      23.28300000      32.34400000 
H      16.91200000      23.42300000      31.40900000 
N      21.76200000      26.01500000      31.87100000 
C      22.21200000      25.48300000      33.55900000 
C      22.25700000      27.06300000      34.51800000 
O      22.47000000      28.17000000      33.73800000 
C      23.91100000      25.38800000      33.42100000 
C      24.24100000      24.69100000      34.72900000 
O      25.01200000      26.19000000      35.35000000 
N      24.08100000      23.70100000      35.34500000 
H      22.44500000      25.84700000      31.45400000 
H      21.66000000      24.93000000      33.94300000 
H      23.66000000      24.10300000      32.81700000 
H      24.23400000      25.73600000      32.91100000 
H      24.45800000      23.72000000      36.17900000 
H      23.71800000      23.17000000      35.04500000 
N      25.36400000      28.53500000      34.22400000 
C      26.28500000      29.48700000      32.94900000 
C      25.11200000      30.43500000      32.29300000 
O      25.47200000      31.17800000      31.74900000 
C      25.99800000      28.11500000      32.19000000 
C      27.00500000      26.79900000      32.38400000 
C      27.11900000      26.42300000      31.18700000 
C      28.57000000      27.90500000      32.83800000 
H      25.26400000      28.20800000      34.40800000 
H      26.75700000      29.76300000      33.08900000 
H      25.03600000      27.65400000      31.85200000 
H      26.43500000      28.64300000      30.94600000 
H      26.65200000      26.62600000      33.35000000 
H      28.05400000      25.21800000      31.66400000 
H      26.33100000      25.63900000      31.10000000 
H      27.65800000      26.59700000      30.49900000 
H      29.14500000      26.92200000      33.03600000 
H      28.79500000      28.34000000      32.02100000 
H      28.32200000      28.38500000      33.77500000 
N      33.52500000      27.07200000      32.83100000 
C      33.27500000      25.64900000      32.05300000 
C      35.14200000      24.69200000      32.50900000 
O      34.78200000      23.85400000      32.44900000 
C      34.03100000      26.29800000      30.43300000 
C      32.81400000      27.03000000      29.75500000 
C      33.20100000      27.22000000      28.55800000 
C      31.15000000      26.27700000      30.09100000 
H      33.66900000      27.84800000      32.53300000 
H      33.11800000      25.32700000      32.00800000 
H      34.89500000      26.94600000      30.53500000 
H      34.17300000      25.39600000      29.98800000 
H      32.65600000      28.05100000      30.61100000 
H      32.21900000      27.92200000      28.05400000 
H      34.02000000      27.89000000      28.42600000 
H      33.15300000      26.44600000      27.98200000 
H      30.83200000      26.68300000      29.65500000 
H      31.67600000      25.12200000      29.58500000 
H      31.19800000      26.08900000      31.12200000 
N      33.78600000      22.72000000      34.65400000 
C      32.86900000      21.65900000      34.66800000 
C      31.67500000      22.22100000      34.64300000 
O      30.17800000      20.85400000      34.39100000 
H      34.12700000      23.18400000      34.32100000 
H      33.00200000      21.52300000      33.24500000 
H      33.00400000      20.78800000      34.84500000 
N      31.37100000      23.64800000      35.12700000 
C      29.69600000      23.44300000      35.49700000 
C      28.94700000      23.56500000      34.05900000 
O      29.32100000      24.02600000      32.91000000 
C      29.84300000      25.10400000      35.96000000 
O      30.62300000      24.95800000      36.84300000 
C      28.43100000      25.52400000      36.16700000 
H      31.79500000      23.86200000      35.06700000 
H      29.44800000      23.05100000      36.18300000 
H      30.14400000      25.84100000      34.89600000 
H      30.98000000      26.30400000      37.10700000 
H      28.45700000      26.51600000      36.69300000 
H      27.79100000      25.54100000      35.54500000 
H      28.02300000      24.85100000      37.00600000 
N      27.62400000      22.90000000      34.49800000 
C      26.77100000      22.96700000      33.20700000 
C      27.00300000      21.80800000      32.28700000 
O      26.24600000      21.89200000      31.12400000 
H      27.47800000      22.66600000      35.19200000 
H      25.82800000      22.79800000      33.71000000 
H      26.74900000      23.86400000      32.76800000 
N      27.88900000      20.99300000      32.65900000 
C      27.81800000      19.71900000      31.56900000 
C      27.42700000      18.55000000      32.21600000 
O      27.14800000      18.30800000      33.34500000 
C      29.43200000      19.40100000      31.68000000 
O      30.48900000      20.44700000      30.81000000 
H      28.35300000      20.90400000      33.34300000 
H      27.68500000      19.96100000      30.80700000 
H      29.86500000      19.23500000      32.59900000 
H      29.57500000      18.38100000      31.01900000 
H      30.69100000      20.38900000      30.90600000 
N      26.48200000      17.53800000      31.73000000 
C      25.89300000      16.76300000      31.48200000 
C      26.02900000      15.37700000      30.72100000 
O      26.62600000      15.59200000      29.76200000 
C      24.27000000      16.86200000      31.67700000 
C      24.02400000      17.92900000      32.13700000 
C      24.12700000      19.79400000      31.94300000 
C      23.01600000      18.14500000      33.55000000 
C      23.83200000      20.09700000      32.64300000 
C      22.94600000      18.86700000      34.05800000 
C      22.89100000      20.05400000      33.99900000 
O      22.73700000      21.37300000      34.64000000 
H      26.68700000      18.15100000      30.05700000 
H      25.99300000      16.43200000      32.72600000 
H      24.21800000      17.24400000      30.21000000 
H      23.79300000      16.16600000      31.57300000 
H      24.68700000      19.60100000      31.09300000 
H      22.86500000      16.71300000      33.70400000 
H      24.08000000      21.68000000      32.43500000 
H      22.11700000      18.69300000      35.16500000 
H      22.15300000      21.02600000      35.45600000 
N      26.03000000      14.56900000      31.11600000 
C      25.99100000      13.24700000      30.14400000 
C      24.21500000      12.10800000      30.51800000 
O      23.67700000      13.07300000      30.98300000 
C      26.78400000      11.93500000      30.95200000 
C      26.94000000      11.50500000      32.26800000 
O      25.47200000      11.67000000      32.70600000 
N      27.96800000      10.86200000      32.91400000 
H      25.35000000      14.16000000      32.27700000 
H      25.99400000      13.41600000      29.51700000 
H      27.06400000      11.23400000      29.94300000 
H      28.19100000      12.90900000      30.67800000 
H      27.74000000      10.67200000      33.40200000 
H      28.92700000      10.97800000      32.06100000 
N      24.52900000      11.58800000      29.93700000 
C      22.71900000      10.93200000      29.84600000 
C      22.28800000      10.60500000      31.12400000 
O      21.21800000      10.90100000      31.47700000 
C      23.29600000       9.27100000      29.27000000 
C      21.29300000       9.00500000      29.13200000 
C      21.65100000       7.51400000      28.44500000 
N      21.71200000       7.44100000      27.10400000 
C      21.73500000       6.82500000      25.89300000 
N      21.75100000       5.44800000      26.40700000 
N      21.86400000       6.81000000      24.58300000 
H      25.01500000      10.86400000      29.30300000 
H      22.39400000      11.47100000      29.35400000 
H      23.28000000       9.66500000      28.03500000 
H      23.44800000       9.00900000      29.43600000 
H      21.29700000       8.61700000      30.00500000 
H      20.94200000       9.36500000      28.73500000 
H      22.39800000       6.94800000      28.62700000 
H      20.64300000       6.97400000      28.48400000 
H      21.70500000       9.02700000      26.47000000 
H      21.68400000       5.33300000      27.18700000 
H      21.78400000       5.03000000      25.80200000 
H      21.85100000       8.36500000      24.42600000 
H      21.87900000       6.62700000      24.16300000 
N      23.06900000      11.83000000      34.28100000 
C      23.18100000      13.31200000      34.71500000 
C      21.94300000      14.04600000      34.33500000 
O      20.98100000      14.69500000      34.99500000 
C      24.33300000      14.23000000      35.41700000 
O      24.78000000      14.55900000      33.87300000 
H      24.29500000      12.08700000      33.70100000 
H      22.57100000      12.98500000      35.99300000 
H      23.90300000      15.01400000      35.69900000 
H      24.85400000      13.60600000      35.76600000 
H      25.70400000      14.91900000      34.17500000 
N      21.73000000      13.98600000      32.93200000 
C      20.93500000      14.52000000      32.14000000 
C      19.35800000      13.94400000      32.67200000 
O      18.33900000      14.74600000      32.98400000 
C      20.96800000      14.46600000      30.79500000 
C      19.96600000      15.02600000      30.00100000 
C      19.28800000      16.44700000      29.93300000 
C      18.53700000      13.72300000      29.23000000 
C      18.54600000      16.54200000      29.27200000 
C      17.85900000      14.57700000      28.70900000 
C      17.55400000      15.35100000      28.63400000 
H      22.57500000      13.50200000      32.36700000 
H      20.64200000      15.72000000      32.50300000 
H      21.69500000      14.94700000      30.43400000 
H      21.14400000      13.39800000      30.54400000 
H      19.94800000      16.81400000      30.27700000 
H      19.16300000      12.90300000      29.44300000 
H      18.04200000      17.70600000      29.11700000 
H      17.14300000      13.55000000      28.18100000 
H      16.49700000      16.04600000      27.93200000 
N      18.36800000      14.88100000      36.27000000 
C      18.36000000      16.49000000      36.46200000 
C      16.69700000      17.17300000      36.05000000 
O      16.56800000      17.29900000      36.14100000 
C      19.49600000      17.12800000      35.71100000 
O      20.70400000      16.79000000      36.32100000 
H      19.27200000      14.70700000      35.24300000 
H      18.26900000      16.49400000      37.35200000 
H      19.52800000      17.04100000      34.76300000 
H      19.21100000      18.29300000      35.92300000 
H      21.04500000      16.20700000      36.07900000 
H      12.10627435      10.15042618      25.15698061 
H       9.51022891      11.31464518      27.68211478 
H      21.73948459      23.07019872      23.99456181 
H      33.97598397      21.51820737      24.24264779 
H      33.25300048      24.46709743      21.89572490 
H      34.44662098      25.40008916      24.71423251 
H      20.74351167      19.20717336      21.10957201 
H      16.28722421      15.90669040      22.02914685 
H      16.41472853      10.22542509      21.88455816 
H      22.84142640      25.40216482      28.36589138 
H      21.04980988      25.54353942      31.58725689 
H      22.13160337      27.04952300      35.51001515 
H      25.58820150      28.83429148      35.04263197 
H      24.14857514      30.22878433      32.46413630 
H      32.80814851      27.26652089      33.33921802 
H      35.95774376      25.24401651      32.68174227 
H      33.47935777      23.38896417      35.17212883 
H      22.89681695      10.11313591      31.74642400 
H      23.00787249      11.30700698      35.01089159 
H      19.18609282      12.96237654      32.75484505 
H      18.63035209      14.48832036      37.03614234 
H      16.24850519      16.91500197      35.19426089 
