642
Properties=species:S:1:pos:R:3 pbc="F F F"
N      46.54500000      37.35700000      52.35400000 
C      46.79800000      38.98600000      52.30800000 
C      48.20500000      39.22900000      52.31600000 
O      49.31700000      38.39400000      52.56900000 
C      46.37800000      39.46800000      54.12700000 
C      47.22400000      39.12600000      54.88500000 
C      44.45700000      39.37200000      53.63400000 
C      46.38500000      39.32300000      56.51000000 
H      47.23200000      36.90200000      53.16600000 
H      46.29700000      39.24700000      51.73000000 
H      46.40900000      40.54500000      53.73700000 
H      46.87800000      37.72100000      55.07700000 
H      47.93600000      39.10900000      54.94800000 
H      44.37600000      39.74700000      54.67700000 
H      44.34800000      39.43600000      53.18200000 
H      44.57000000      38.16900000      54.12100000 
H      47.17900000      39.18800000      57.18000000 
H      46.51800000      40.72400000      56.34100000 
H      45.62600000      39.19900000      56.59900000 
N      43.87000000      52.89300000      58.99100000 
C      44.67000000      51.62900000      59.61400000 
C      44.44800000      51.55900000      60.94900000 
O      45.33400000      52.79800000      61.55600000 
H      43.08500000      53.08000000      59.18500000 
H      43.66500000      50.81700000      59.30000000 
H      45.30200000      51.42200000      59.06600000 
N      44.22100000      50.63700000      61.68600000 
C      44.34500000      50.68100000      63.07400000 
C      44.38800000      49.07500000      63.70300000 
O      44.30600000      48.27400000      62.83600000 
C      43.19200000      51.42500000      63.86900000 
C      42.08700000      50.57500000      63.56900000 
O      41.61000000      49.94200000      63.34700000 
O      40.71000000      52.01600000      63.98100000 
H      43.73900000      50.03900000      61.33300000 
H      45.34400000      51.07000000      63.46600000 
H      43.45500000      51.45000000      65.05200000 
H      43.35500000      52.49600000      63.57900000 
N      44.82600000      49.02500000      64.89700000 
C      44.75100000      47.65100000      65.55600000 
C      44.16700000      48.05600000      66.67100000 
O      44.29500000      48.98300000      67.73100000 
C      46.45800000      47.52000000      66.08500000 
C      46.44000000      46.02900000      66.83800000 
C      45.88500000      44.79300000      66.33900000 
C      48.07700000      46.03800000      66.99100000 
H      45.04500000      49.76900000      65.39100000 
H      44.40400000      47.00400000      64.97000000 
H      46.83800000      47.30400000      64.95900000 
H      46.69300000      48.17600000      66.42100000 
H      46.08600000      46.21800000      67.64400000 
H      46.22200000      44.08600000      66.58100000 
H      44.98100000      44.88300000      65.98300000 
H      46.47300000      44.73400000      65.01500000 
H      48.21100000      45.07000000      67.74500000 
H      48.54300000      45.78800000      66.20600000 
H      48.47200000      46.78900000      67.49900000 
N      42.67800000      46.81000000      66.83600000 
C      42.14200000      47.30600000      68.29800000 
C      42.10600000      45.65600000      68.67900000 
O      42.26900000      45.05200000      68.57300000 
C      40.55100000      47.11500000      67.59900000 
C      40.37000000      48.50700000      66.72700000 
C      38.56600000      48.18400000      66.41500000 
C      40.12800000      49.96300000      67.43300000 
H      42.79400000      46.51300000      66.39800000 
H      42.24300000      48.13200000      68.68600000 
H      40.32800000      46.39300000      67.10000000 
H      39.93300000      47.25800000      68.53200000 
H      40.85500000      48.46200000      65.91300000 
H      38.51300000      49.14800000      65.50800000 
H      38.69100000      47.39600000      65.61500000 
H      38.11100000      48.27100000      66.87900000 
H      40.11000000      50.48800000      66.94700000 
H      39.62300000      49.81500000      68.34600000 
H      41.27400000      49.93300000      67.88600000 
N      42.34300000      46.46100000      70.42800000 
C      42.74300000      44.88400000      71.24400000 
C      41.35600000      45.00800000      72.33100000 
O      41.31000000      46.23500000      72.98700000 
C      43.84300000      45.31200000      71.92000000 
C      45.32800000      45.41100000      71.00900000 
C      46.34500000      45.84300000      71.67000000 
C      45.42900000      44.01000000      70.42500000 
H      42.39500000      47.09000000      70.66300000 
H      42.53600000      44.27900000      70.82500000 
H      43.95200000      46.26200000      72.55300000 
H      44.07200000      44.43100000      72.75200000 
H      45.05100000      46.00900000      70.37900000 
H      47.27500000      45.67000000      71.20800000 
H      46.36600000      46.51300000      72.33600000 
H      46.69100000      44.79200000      72.71700000 
H      46.28500000      43.97500000      69.71100000 
H      45.46400000      43.10000000      71.07500000 
H      44.51800000      43.72700000      69.59800000 
N      40.88700000      44.24000000      72.45800000 
C      39.58900000      43.93600000      73.49200000 
C      39.98100000      42.89500000      74.45000000 
O      40.28900000      41.67600000      74.07400000 
C      38.36900000      43.57100000      72.80900000 
C      37.98600000      44.39300000      71.55400000 
O      38.00700000      45.49300000      71.62800000 
O      37.62400000      43.81500000      70.72300000 
H      40.96000000      43.19000000      71.87800000 
H      39.63400000      44.87000000      73.95800000 
H      38.34400000      42.52100000      72.60400000 
H      37.57400000      43.70600000      73.60500000 
N      51.55000000      43.22800000      77.24800000 
C      51.51100000      43.15900000      75.54000000 
C      53.04900000      43.79500000      75.28300000 
O      53.30700000      44.75700000      76.05900000 
C      50.44900000      43.90400000      75.44600000 
C      49.26000000      43.40300000      75.53100000 
C      48.23500000      42.62800000      76.01300000 
C      47.86600000      44.83400000      75.44200000 
C      47.74600000      42.05000000      76.19200000 
C      47.04000000      43.92600000      75.76100000 
C      46.44100000      43.51100000      76.03700000 
O      44.99300000      42.86600000      76.43100000 
H      51.57200000      43.61200000      77.65400000 
H      51.57700000      42.08900000      75.27800000 
H      50.69700000      45.03600000      75.58000000 
H      50.65400000      44.03900000      74.02800000 
H      49.45900000      41.46000000      76.07300000 
H      48.36600000      45.49300000      75.16100000 
H      46.98600000      40.97000000      76.62400000 
H      45.84500000      45.31000000      75.58800000 
H      44.82900000      42.04600000      76.85300000 
N      54.62900000      45.54900000      72.02200000 
C      54.40000000      46.20400000      70.83600000 
C      55.63600000      47.50100000      70.63100000 
O      55.64200000      47.72900000      70.82700000 
C      53.06500000      47.05400000      70.91800000 
C      51.74000000      46.27200000      71.47800000 
C      52.79200000      47.36400000      69.65500000 
C      50.79000000      46.74000000      72.22100000 
H      55.08300000      46.23100000      72.85900000 
H      54.21600000      45.31700000      70.17200000 
H      53.16200000      47.76300000      71.68800000 
H      51.32700000      45.67500000      70.59700000 
H      52.20900000      45.17500000      72.03800000 
H      51.64300000      48.26800000      69.69400000 
H      53.45300000      48.38000000      69.25400000 
H      52.54400000      46.92400000      68.87400000 
H      50.06300000      46.35100000      72.54900000 
H      51.35900000      47.18400000      73.30500000 
H      50.52100000      47.86900000      71.81200000 
N      57.74100000      48.04000000      66.67700000 
C      57.94400000      48.51200000      65.55400000 
C      58.80800000      48.81600000      64.65100000 
O      59.75500000      50.05200000      65.54700000 
C      56.41400000      48.89900000      64.78700000 
C      56.26900000      49.98700000      64.99200000 
C      56.46500000      51.36600000      64.06000000 
C      55.29700000      50.90300000      66.27600000 
N      55.98300000      52.81700000      64.61800000 
C      55.31000000      52.03500000      65.69400000 
C      54.84500000      50.41800000      67.11600000 
C      54.46100000      53.07300000      66.92600000 
C      53.94600000      51.09500000      68.10300000 
C      53.89700000      52.52000000      67.78400000 
H      58.12700000      49.23900000      67.36200000 
H      57.96900000      47.19800000      65.03100000 
H      56.49100000      48.62700000      63.76900000 
H      55.73900000      48.21300000      65.22200000 
H      57.01500000      51.29800000      63.31700000 
H      56.02500000      53.25800000      64.30600000 
H      54.81900000      49.13700000      67.44600000 
H      54.45900000      54.21200000      66.44400000 
H      53.56100000      50.79100000      68.89400000 
H      53.42700000      53.12800000      68.38800000 
N      55.85900000      51.08800000      71.91800000 
C      54.87500000      51.78400000      72.48600000 
C      55.00600000      52.28900000      74.08000000 
O      56.11600000      51.75800000      74.56200000 
C      53.68500000      51.41900000      72.19100000 
C      52.14600000      51.75800000      72.43600000 
C      52.35300000      53.11100000      71.43500000 
C      51.09500000      51.38000000      73.22200000 
N      50.40700000      53.39400000      72.09500000 
C      50.26200000      52.55300000      72.73200000 
C      50.86800000      50.54600000      73.98600000 
C      48.80600000      52.44900000      73.51300000 
C      49.68400000      50.40400000      74.52300000 
C      48.70100000      51.33900000      74.31800000 
H      55.98500000      50.28300000      71.72000000 
H      54.72500000      52.97200000      71.88700000 
H      53.69900000      50.54100000      71.27900000 
H      53.57500000      50.06800000      73.21100000 
H      52.48800000      53.47200000      71.08600000 
H      50.31500000      54.12800000      71.61100000 
H      51.53300000      49.66600000      74.25600000 
H      48.17700000      53.19600000      73.20900000 
H      49.30600000      49.59700000      75.29200000 
H      47.57100000      51.36100000      74.80300000 
N      38.43700000      45.22100000      82.91900000 
C      38.18400000      45.27500000      81.04700000 
C      39.33100000      46.82100000      80.93600000 
O      39.49000000      47.29400000      81.32500000 
C      36.94500000      45.92500000      81.06900000 
C      36.52700000      46.32700000      79.16800000 
N      36.76300000      45.08200000      78.55800000 
C      36.37500000      47.10600000      78.86500000 
C      36.59900000      45.78200000      77.52000000 
N      36.25400000      47.36000000      77.69300000 
H      37.88100000      45.77400000      83.21800000 
H      38.43100000      44.53900000      80.81700000 
H      36.14700000      45.08300000      81.32600000 
H      36.60200000      46.76000000      81.55400000 
H      36.96900000      44.43400000      78.64200000 
H      36.20200000      48.38600000      79.29900000 
H      36.57600000      45.32800000      76.34500000 
N      39.75900000      46.04700000      79.43400000 
C      40.70500000      47.27600000      78.95800000 
C      40.37500000      46.88300000      77.51500000 
O      40.33100000      46.10100000      76.80300000 
C      42.32000000      46.72100000      79.07200000 
C      43.02200000      47.49300000      78.87800000 
C      43.92000000      48.88500000      78.86500000 
C      44.08300000      47.04100000      77.45800000 
C      44.47200000      49.54100000      78.86600000 
C      45.09500000      47.92800000      76.87100000 
C      45.32200000      49.11100000      77.64500000 
H      39.59500000      45.41100000      79.07700000 
H      40.56800000      48.03500000      79.25100000 
H      42.24000000      46.62500000      80.34700000 
H      42.27100000      45.61000000      78.82400000 
H      42.93300000      49.11000000      80.26000000 
H      43.72800000      46.19900000      77.03600000 
H      44.82700000      50.40800000      79.16700000 
H      45.56300000      47.57000000      76.18600000 
H      46.11000000      49.71400000      77.21700000 
N      40.32800000      48.31100000      76.66700000 
C      40.23300000      48.35700000      75.43300000 
C      41.12500000      49.49000000      74.96700000 
O      41.39400000      50.64300000      75.71700000 
C      38.87100000      49.06700000      74.86300000 
O      38.00500000      47.87100000      75.00300000 
C      38.58900000      49.26000000      73.48400000 
H      40.44100000      49.22300000      77.41500000 
H      40.44400000      47.54500000      74.85200000 
H      38.53600000      49.87500000      75.62200000 
H      37.35400000      47.92700000      76.16900000 
H      37.78500000      49.57700000      73.26300000 
H      39.35800000      50.21100000      73.23100000 
H      38.99500000      48.56500000      72.86600000 
N      42.21400000      49.33500000      73.70000000 
C      42.88200000      50.23700000      73.46200000 
C      43.13100000      50.22300000      71.80600000 
O      42.60100000      49.16100000      71.30300000 
C      44.42100000      50.29400000      74.02300000 
O      44.86300000      51.66100000      73.88600000 
C      45.18700000      49.19900000      73.76400000 
H      41.89600000      48.45700000      73.43200000 
H      42.41500000      51.32200000      73.54900000 
H      44.01600000      50.26600000      75.20300000 
H      44.68500000      52.26600000      74.41300000 
H      46.06700000      49.27100000      74.29200000 
H      44.76100000      48.28300000      73.77500000 
H      45.53300000      49.35500000      72.65000000 
N      43.64600000      50.95300000      71.28700000 
C      44.03100000      51.05500000      70.02200000 
C      45.51900000      51.64400000      69.50200000 
O      45.84200000      52.66200000      70.41000000 
C      42.82600000      51.81400000      68.96100000 
O      43.27800000      51.76600000      67.63800000 
H      44.22400000      51.90600000      71.88400000 
H      44.06800000      49.98500000      69.49500000 
H      42.15200000      51.52800000      69.30500000 
H      43.07900000      53.02900000      69.36400000 
H      43.36500000      50.90800000      67.34600000 
N      46.09300000      51.18200000      68.61700000 
C      47.44200000      51.74800000      68.11200000 
C      47.18400000      52.05600000      66.59300000 
O      47.17400000      51.37800000      65.87700000 
C      48.54600000      50.80000000      68.33600000 
C      48.65300000      50.33300000      69.41800000 
C      49.68800000      51.75600000      67.64800000 
C      48.22500000      48.97300000      70.28600000 
H      45.77000000      50.43400000      68.12300000 
H      47.58000000      52.62600000      68.67400000 
H      48.38300000      49.98700000      67.63500000 
H      49.93400000      50.28400000      69.97100000 
H      48.30800000      51.21500000      70.48800000 
H      50.87500000      50.65500000      67.79600000 
H      49.75100000      51.83000000      66.75600000 
H      50.10400000      52.31200000      68.32900000 
H      48.22400000      48.78000000      70.99500000 
H      46.99500000      49.01000000      69.74100000 
H      48.64200000      48.18900000      69.43400000 
N      46.75600000      53.67400000      66.36500000 
C      46.70700000      53.80100000      64.95700000 
C      48.03900000      53.80300000      64.19500000 
O      48.97600000      54.11400000      64.70900000 
C      46.12000000      55.44500000      64.92400000 
C      45.67000000      55.47800000      66.43300000 
C      46.83900000      54.43800000      67.50600000 
H      45.87000000      53.20600000      64.49000000 
H      46.84500000      55.95800000      64.90100000 
H      45.39200000      55.47600000      64.41700000 
H      45.69400000      56.49700000      66.87700000 
H      44.61500000      55.08800000      66.66600000 
H      47.45600000      55.05000000      67.47600000 
H      46.21800000      54.23600000      68.20500000 
N      47.70100000      53.59400000      63.01800000 
C      49.21600000      53.41400000      62.24700000 
C      49.23800000      55.32300000      61.74300000 
O      48.62100000      55.83700000      61.83100000 
C      48.93900000      52.68100000      60.73600000 
C      49.36600000      51.48100000      60.61000000 
C      50.51100000      51.19400000      61.10400000 
C      48.71100000      50.46900000      61.97600000 
H      47.03400000      53.28200000      62.47800000 
H      49.76000000      53.26100000      62.48700000 
H      47.69900000      52.94900000      60.42400000 
H      49.41400000      53.33400000      59.90600000 
H      48.92600000      50.95800000      59.87600000 
H      51.09000000      50.10500000      60.74300000 
H      51.36100000      51.86700000      59.87800000 
H      51.16800000      51.51900000      61.72100000 
H      48.81900000      49.54700000      61.75600000 
H      48.82500000      50.80900000      62.73600000 
H      47.37100000      50.61600000      61.80900000 
N      50.68100000      55.31200000      61.55600000 
C      51.13300000      56.76900000      61.20900000 
C      52.12100000      57.15600000      60.32300000 
O      52.69600000      57.81500000      60.00900000 
C      52.00100000      56.95000000      62.72300000 
C      53.23400000      56.09500000      62.89900000 
C      54.21300000      56.74000000      63.94100000 
C      55.50400000      56.54100000      63.40500000 
N      56.21800000      57.25600000      62.55600000 
H      51.34800000      54.55800000      61.55800000 
H      50.45200000      57.25000000      61.38000000 
H      52.36700000      58.17200000      62.48200000 
H      51.39300000      57.07600000      63.47100000 
H      53.01000000      55.28300000      63.18200000 
H      53.86600000      56.10200000      61.94500000 
H      54.03300000      57.87100000      64.08800000 
H      53.91200000      56.32500000      65.01700000 
H      56.39800000      56.86700000      64.80900000 
H      55.85000000      55.53300000      63.47100000 
H      57.10100000      57.07000000      62.32500000 
H      55.59600000      57.42300000      61.87700000 
H      56.26400000      58.45000000      62.89000000 
N      55.75700000      44.98700000      62.34800000 
C      55.08200000      45.06900000      63.41500000 
C      55.03500000      43.88900000      64.19400000 
O      54.74600000      42.94700000      63.86200000 
C      53.49000000      45.60300000      63.32400000 
C      52.54800000      46.04300000      64.33200000 
C      53.33100000      46.71000000      65.61800000 
C      51.54300000      46.29700000      63.96400000 
H      55.56100000      43.93600000      61.83200000 
H      55.65100000      45.98100000      64.03300000 
H      53.71300000      46.58600000      62.66200000 
H      53.19200000      44.95600000      62.52300000 
H      52.47800000      44.78800000      64.89700000 
H      52.48000000      46.91500000      66.25300000 
H      54.03100000      46.41800000      65.92100000 
H      53.41800000      47.80500000      65.05200000 
H      50.55800000      46.48400000      64.75300000 
H      51.44400000      47.42400000      63.44500000 
H      50.84600000      45.68900000      63.03000000 
N      54.34300000      41.84300000      67.63700000 
C      53.27200000      41.63900000      68.50500000 
C      53.45600000      40.12900000      69.17200000 
O      53.45800000      39.44900000      68.80600000 
C      51.76600000      41.86500000      68.16600000 
C      50.68800000      41.39400000      69.04200000 
C      51.41000000      43.14300000      67.35100000 
H      54.17500000      40.99600000      66.78500000 
H      53.45500000      42.53000000      69.34200000 
H      51.72700000      41.05600000      67.26500000 
H      49.89100000      41.66300000      68.77900000 
H      50.80900000      40.64600000      69.47200000 
H      50.87500000      42.26200000      69.98800000 
H      50.76600000      43.24300000      67.04400000 
H      51.71200000      43.96400000      68.23800000 
H      52.39300000      43.41900000      66.65800000 
N      51.93400000      38.77600000      73.17800000 
C      50.95200000      38.36700000      74.15100000 
C      51.15900000      37.27100000      74.51000000 
O      51.10200000      36.39300000      74.45200000 
C      49.26200000      38.64600000      73.37600000 
C      49.26800000      39.98900000      72.66900000 
C      48.66200000      38.28500000      74.45900000 
C      47.85400000      39.85300000      71.77700000 
H      51.81800000      37.59600000      72.06300000 
H      51.12300000      39.53400000      74.51700000 
H      49.39300000      37.80700000      72.69300000 
H      49.22000000      40.78200000      73.43200000 
H      50.14100000      40.14700000      71.97400000 
H      47.33200000      38.51600000      74.08000000 
H      48.47100000      37.50000000      74.94800000 
H      48.55200000      39.24500000      75.38900000 
H      47.92300000      41.00500000      71.26300000 
H      47.98800000      39.28000000      71.11400000 
H      47.17600000      39.92300000      72.36500000 
N      53.63500000      40.74400000      60.31400000 
C      52.58300000      40.76300000      60.11400000 
C      51.98200000      41.68700000      59.09100000 
O      52.34600000      42.71300000      59.13200000 
C      51.67100000      40.67500000      61.53400000 
C      51.46200000      41.96500000      62.07400000 
C      50.16200000      42.72200000      61.63700000 
C      51.22700000      41.45200000      63.59100000 
H      54.15300000      41.12400000      61.60800000 
H      52.35100000      39.56700000      59.71200000 
H      50.44900000      40.20400000      61.08400000 
H      51.96800000      39.85500000      62.00600000 
H      52.17900000      42.47700000      62.11400000 
H      50.08600000      43.73200000      62.29900000 
H      50.31400000      43.03700000      60.66100000 
H      49.25900000      42.16200000      61.81600000 
H      51.02000000      42.60500000      64.32900000 
H      50.26600000      40.99300000      63.85500000 
H      51.95100000      41.10000000      64.09000000 
N      51.17300000      41.19600000      58.04000000 
C      50.98200000      42.05100000      56.96300000 
C      49.84600000      43.29800000      57.69100000 
O      49.04300000      43.04800000      58.22800000 
C      50.17300000      41.36700000      55.97500000 
C      50.67200000      39.75800000      56.24400000 
C      50.79800000      40.05700000      57.70000000 
H      51.65800000      42.58900000      56.64400000 
H      48.94600000      41.26600000      56.16700000 
H      50.31000000      41.65900000      54.96400000 
H      50.12300000      39.15600000      55.81600000 
H      51.69700000      39.79800000      55.71400000 
H      49.88200000      39.53900000      58.21200000 
H      51.71500000      39.04300000      58.03300000 
N      47.23500000      45.99700000      57.33500000 
C      45.42800000      45.71900000      56.66500000 
C      44.57800000      46.90600000      57.10200000 
O      45.04800000      47.54500000      58.25800000 
C      45.07300000      44.05200000      56.76300000 
C      44.85800000      44.23600000      58.45800000 
C      44.05700000      44.19900000      56.13700000 
H      47.03700000      46.30700000      58.10300000 
H      45.65900000      45.92400000      55.58400000 
H      45.84400000      43.77700000      56.69200000 
H      44.72000000      42.95400000      58.65900000 
H      45.70500000      44.42600000      59.08600000 
H      44.02500000      44.65800000      58.85000000 
H      43.72600000      42.78600000      56.19300000 
H      42.93100000      44.38500000      56.49600000 
H      43.99700000      44.18100000      55.14800000 
N      43.88900000      47.10900000      56.93100000 
C      42.66300000      48.16700000      56.97900000 
C      42.11200000      47.97200000      58.45100000 
O      42.25900000      49.22600000      59.21100000 
C      41.27900000      48.00600000      55.96300000 
C      40.36600000      49.06100000      56.32200000 
C      40.38100000      50.32100000      55.71800000 
N      40.64200000      50.43000000      54.32900000 
C      40.98000000      51.52000000      53.28500000 
N      40.90000000      52.94400000      54.39800000 
N      41.08500000      51.23100000      52.37000000 
H      43.30500000      46.53300000      55.73400000 
H      43.19100000      49.15800000      56.89900000 
H      41.84300000      48.17800000      55.05500000 
H      41.05000000      47.10400000      56.15000000 
H      39.40200000      48.65800000      55.78400000 
H      40.04000000      49.11800000      57.29600000 
H      39.67100000      51.14300000      56.03800000 
H      41.59900000      50.98700000      56.28700000 
H      40.57800000      49.51500000      53.80500000 
H      40.84000000      52.85200000      54.79300000 
H      41.16200000      53.45600000      53.46000000 
H      41.14500000      50.42700000      51.81600000 
H      41.40000000      52.16000000      51.60600000 
N      41.74000000      46.92200000      58.80100000 
C      40.88900000      47.02100000      60.24600000 
C      41.58200000      45.39800000      60.98900000 
O      40.97700000      44.50500000      60.23600000 
C      39.90900000      47.39700000      60.24300000 
C      38.81500000      47.05500000      61.72400000 
C      37.53500000      47.46900000      61.54800000 
C      37.09800000      49.29200000      61.17200000 
N      35.94800000      49.57600000      61.13300000 
H      41.57500000      46.27900000      58.39300000 
H      41.58100000      47.58600000      60.87500000 
H      39.49800000      48.00500000      59.75800000 
H      39.03300000      46.25800000      59.57800000 
H      39.04300000      46.42200000      62.10100000 
H      39.52600000      48.05200000      62.25700000 
H      36.96800000      46.93700000      60.92500000 
H      37.00700000      47.47100000      62.62500000 
H      37.64500000      49.67400000      61.75900000 
H      37.55000000      49.23100000      60.19700000 
H      35.57900000      50.13200000      60.89200000 
H      35.13400000      48.66000000      60.32600000 
H      35.27300000      49.20200000      62.13300000 
N      42.00100000      45.39200000      61.65700000 
C      42.59500000      44.30500000      62.57400000 
C      42.03700000      44.27000000      63.99400000 
O      42.44500000      45.37000000      64.74600000 
C      43.99600000      43.86800000      62.57400000 
C      44.36200000      42.47600000      63.31300000 
C      45.82400000      42.18300000      63.03100000 
N      46.18900000      42.21000000      62.09900000 
C      46.41900000      40.69600000      60.85600000 
N      45.59800000      39.65800000      61.62900000 
N      47.10000000      40.64700000      59.65200000 
H      42.63100000      46.33500000      62.34100000 
H      41.92900000      43.33600000      62.03100000 
H      44.31500000      43.82600000      61.36300000 
H      44.53800000      44.64800000      62.98800000 
H      44.08800000      42.53100000      64.11200000 
H      43.74300000      41.73000000      62.72600000 
H      46.39000000      42.85700000      63.50900000 
H      45.98200000      41.23000000      63.66800000 
H      46.76800000      42.75300000      61.23800000 
H      45.20400000      39.67100000      62.15600000 
H      45.84700000      38.91700000      60.98000000 
H      47.49000000      41.48300000      59.63300000 
H      46.98700000      40.09900000      59.41500000 
N      41.12000000      43.32000000      64.55900000 
C      40.53400000      43.23000000      65.76900000 
C      40.97200000      41.96400000      66.29800000 
O      40.54000000      41.02700000      65.97200000 
C      39.16800000      43.59000000      65.56600000 
O      39.02500000      44.74600000      65.06900000 
C      38.59500000      43.38400000      67.00200000 
H      40.93700000      42.60800000      63.81800000 
H      41.11800000      44.25700000      66.34400000 
H      38.70500000      42.82500000      65.16200000 
H      37.92600000      45.03600000      64.87700000 
H      37.29200000      43.90000000      66.98100000 
H      38.49500000      42.65200000      67.57600000 
H      38.98700000      44.43400000      67.81800000 
N      41.76700000      42.20300000      67.69600000 
C      42.20300000      40.92300000      68.10100000 
C      41.08500000      40.84200000      69.83500000 
O      41.45600000      41.80600000      70.29300000 
C      43.54900000      40.68700000      68.52700000 
C      44.41600000      40.47400000      67.25100000 
C      44.17000000      39.72500000      69.49700000 
C      45.72900000      40.66900000      67.06600000 
H      41.99900000      42.91800000      67.86300000 
H      41.73900000      40.01200000      67.73900000 
H      43.98300000      41.70700000      68.96700000 
H      44.03300000      39.50000000      66.76100000 
H      43.90900000      41.37500000      66.39600000 
H      44.77000000      39.50900000      69.64000000 
H      43.51400000      39.76700000      70.42600000 
H      43.49200000      38.60200000      69.09000000 
H      46.25800000      40.59500000      66.22700000 
H      46.16800000      41.64700000      67.69000000 
H      46.32500000      39.82500000      67.91100000 
N      40.75300000      36.35500000      65.60100000 
C      41.75800000      37.65100000      64.77800000 
C      40.84000000      37.79100000      63.58100000 
O      40.87800000      37.46200000      62.86700000 
C      43.08000000      37.02900000      64.56400000 
C      44.20600000      37.52900000      63.91000000 
O      43.71600000      39.15500000      63.47800000 
O      45.12900000      37.33800000      63.88000000 
H      40.67100000      35.94000000      65.23000000 
H      41.84600000      38.54100000      65.61500000 
H      43.42200000      36.51500000      65.53500000 
H      42.83000000      36.06800000      63.86600000 
N      40.10700000      39.00500000      63.76400000 
C      39.13400000      39.64400000      62.79600000 
C      39.90400000      40.29000000      61.60000000 
O      40.62600000      41.47000000      62.30800000 
C      37.99900000      40.33300000      63.36100000 
C      37.10000000      39.33600000      64.33700000 
C      35.96800000      40.44700000      64.75900000 
C      35.06100000      39.45100000      65.85600000 
N      34.05300000      40.33900000      66.14700000 
H      40.22400000      39.71700000      64.69000000 
H      38.86700000      38.63100000      62.20000000 
H      38.37900000      41.24400000      63.75300000 
H      37.38200000      40.57300000      62.47700000 
H      36.88100000      38.61700000      63.90700000 
H      37.75300000      39.36300000      65.19500000 
H      36.14600000      41.24400000      65.07700000 
H      35.22200000      40.46800000      63.84400000 
H      34.87300000      38.71900000      65.55600000 
H      35.69200000      39.51000000      66.70500000 
H      33.33000000      39.78400000      67.02900000 
H      34.06500000      41.29000000      66.52100000 
H      33.17600000      40.39800000      65.40400000 
N      40.04400000      40.10400000      60.76100000 
C      40.80300000      40.75400000      59.38300000 
C      39.86400000      40.88700000      58.41800000 
O      39.26800000      40.23500000      57.79300000 
C      42.02800000      40.06500000      59.00300000 
C      41.56700000      38.22700000      58.93900000 
C      42.85300000      40.70100000      58.06100000 
H      39.50200000      39.17000000      60.23900000 
H      41.19200000      41.64400000      59.97200000 
H      42.69800000      39.82900000      60.05100000 
H      42.72000000      37.93800000      58.42700000 
H      41.30200000      37.99400000      59.30400000 
H      41.12900000      38.40200000      57.75400000 
H      43.82200000      40.13500000      57.86500000 
H      42.27100000      40.60400000      57.03000000 
H      42.99600000      41.60000000      58.27900000 
N      39.50100000      42.71600000      58.10800000 
C      38.70200000      42.87000000      57.58000000 
C      39.23000000      44.10000000      56.32100000 
O      39.84700000      44.73600000      56.88300000 
C      37.51300000      43.23300000      58.26300000 
C      36.77800000      42.55300000      58.96500000 
C      35.35600000      42.42800000      60.03800000 
O      35.04800000      44.04300000      59.55900000 
O      35.18500000      42.19600000      60.36500000 
H      40.10000000      43.01800000      58.73900000 
H      38.26300000      41.99900000      56.56000000 
H      37.66300000      44.16700000      58.69300000 
H      36.58400000      43.94200000      57.31400000 
H      36.21000000      41.43100000      58.09200000 
H      37.34400000      41.82500000      59.49500000 
H      45.68298204      37.19236880      52.55355351 
H      48.55567095      40.14322388      52.11296160 
H      44.30136230      53.65453510      59.20073999 
H      40.02024596      43.10391121      75.42714680 
H      50.80845009      42.84195598      77.58127727 
H      53.63977437      43.40490352      74.57673491 
H      53.85331671      45.21958053      72.33790861 
H      56.28803598      47.45519759      69.87419671 
H      56.87762041      47.79625495      66.74886115 
H      58.77915469      48.36447467      63.75920808 
H      56.00896831      51.40219858      71.08806701 
H      54.30526257      52.88268985      74.47560008 
H      38.27907915      44.38750616      83.21958115 
H      52.46826772      56.50659609      59.64647972 
H      55.51191816      45.64592003      61.78607538 
H      55.29529418      43.91632976      65.15914249 
H      54.30502877      42.67831734      67.30412897 
H      53.58250255      40.03042686      70.15905645 
H      51.71748449      39.58791632      72.85564471 
H      51.69119451      37.10916919      75.34101130 
H      53.94716084      39.90741925      60.20135782 
H      50.02111360      44.27320249      57.55566585 
H      47.67441881      45.21168487      57.34882941 
H      40.46643690      40.07285845      69.99562679 
H      41.19345281      36.04633734      66.32261533 
H      38.90591693      44.02114582      55.37826346 
