400
Properties=species:S:1:pos:R:3 pbc="F F F"
N      31.67000000      26.79200000      50.35100000 
C      30.61000000      26.48600000      50.82800000 
C      30.16500000      27.60600000      51.66500000 
O      28.47400000      27.66200000      51.99300000 
C      29.97700000      24.99700000      51.41100000 
C      31.29900000      24.36300000      51.60700000 
C      30.98300000      23.73000000      53.27800000 
C      31.42600000      23.06100000      50.68200000 
H      32.59900000      26.62500000      51.11200000 
H      29.79300000      26.70900000      49.83500000 
H      29.46900000      25.27600000      52.13400000 
H      29.51600000      24.61600000      50.59400000 
H      32.17400000      24.77100000      51.89600000 
H      31.88500000      22.86000000      53.47000000 
H      30.90500000      24.34300000      53.91000000 
H      29.99500000      22.94400000      53.16300000 
H      32.36300000      22.48800000      51.01300000 
H      30.68500000      22.48100000      50.67400000 
H      31.67900000      23.54300000      49.76700000 
N      30.87300000      28.55000000      52.52300000 
C      30.53600000      29.27200000      53.34700000 
C      29.86000000      30.39100000      53.09500000 
O      28.77700000      31.15100000      53.85400000 
C      31.59300000      29.68100000      54.42000000 
O      32.01600000      28.10200000      55.10800000 
H      31.67900000      28.35300000      52.21000000 
H      29.54100000      28.71100000      54.04300000 
H      32.26500000      29.87100000      54.01500000 
H      31.21100000      30.14600000      55.20500000 
H      32.53300000      28.28000000      55.50600000 
N      21.04800000      23.36800000      59.71500000 
C      21.02200000      22.17300000      58.88200000 
C      21.51500000      22.93700000      57.40800000 
O      21.38700000      23.40400000      57.32000000 
C      19.52000000      21.33800000      58.88500000 
C      18.54000000      22.49700000      58.48700000 
C      17.11100000      22.03200000      58.33200000 
O      16.88100000      21.23500000      57.08100000 
N      16.44600000      21.90000000      58.72400000 
H      20.98000000      23.98100000      59.61000000 
H      21.62100000      21.17500000      59.32100000 
H      19.59800000      20.80100000      58.06200000 
H      19.32700000      21.15900000      59.58200000 
H      18.41700000      23.35300000      59.14400000 
H      18.80500000      23.10200000      57.35100000 
H      16.49500000      22.70300000      60.25200000 
H      15.23500000      21.56300000      59.04200000 
N      22.23700000      21.80000000      56.94600000 
C      22.88000000      21.82800000      55.54500000 
C      22.48700000      20.50500000      54.84300000 
O      22.62800000      19.73400000      55.00300000 
C      24.41100000      22.01700000      55.78600000 
C      24.79000000      22.95300000      56.52400000 
C      25.02700000      22.10200000      54.36000000 
C      26.55400000      23.17700000      56.92700000 
H      22.56900000      20.59900000      57.42900000 
H      22.51300000      22.79700000      55.25600000 
H      24.78300000      20.96200000      56.11600000 
H      24.70900000      24.05900000      56.18400000 
H      24.34100000      22.99800000      57.54000000 
H      26.13200000      22.16300000      54.32200000 
H      24.80200000      21.22100000      53.60100000 
H      24.68100000      23.02100000      53.78600000 
H      26.63000000      23.73200000      57.72000000 
H      26.63700000      21.90400000      57.47800000 
H      26.97900000      23.10900000      56.16700000 
N      21.83300000      21.08400000      53.58100000 
C      21.44800000      19.89000000      52.73400000 
C      22.42900000      20.45300000      50.97800000 
O      22.15300000      21.46200000      50.85000000 
C      19.96800000      19.91900000      52.31200000 
C      19.70200000      18.78100000      51.62300000 
C      19.11600000      20.11300000      53.60200000 
H      21.66700000      22.06700000      53.34900000 
H      21.76300000      19.10300000      52.93800000 
H      19.65200000      20.93100000      51.74900000 
H      18.41700000      18.70600000      51.30300000 
H      20.07900000      18.79900000      50.44700000 
H      19.93400000      17.90000000      51.92500000 
H      18.10300000      19.89900000      53.42500000 
H      19.46800000      19.10000000      54.29800000 
H      19.32100000      20.87000000      54.18700000 
N      22.77200000      19.30000000      51.03000000 
C      23.96300000      19.32200000      49.67400000 
C      23.41200000      18.71800000      48.56500000 
O      23.49300000      17.05100000      48.99800000 
C      25.13600000      19.13400000      49.96300000 
C      26.42500000      19.72400000      49.03600000 
O      27.60400000      20.07600000      49.80100000 
N      26.04800000      19.53200000      47.79100000 
H      22.97200000      18.51200000      51.17800000 
H      23.64700000      20.57800000      49.14100000 
H      25.38600000      19.88700000      51.08600000 
H      25.39100000      18.30000000      50.34300000 
H      27.05100000      19.91300000      47.30900000 
H      25.60800000      19.44300000      47.46300000 
N      22.41200000      21.55700000      40.74400000 
C      23.26900000      21.84400000      42.22200000 
C      22.09300000      22.99400000      43.03400000 
O      21.83800000      23.75400000      42.76500000 
C      24.36300000      22.40300000      42.22300000 
C      25.34600000      22.12500000      43.51200000 
C      26.75600000      22.57300000      43.36800000 
O      27.45400000      22.16200000      44.25600000 
N      27.47300000      23.41800000      42.44400000 
H      22.20600000      22.82400000      40.47600000 
H      23.04000000      20.81000000      42.57000000 
H      25.04000000      21.77400000      41.27200000 
H      24.48400000      23.46500000      41.78900000 
H      24.82200000      22.87600000      44.20700000 
H      25.19100000      21.26200000      43.77300000 
H      26.57400000      23.73200000      41.65700000 
H      27.98400000      23.56300000      42.38400000 
N      21.96600000      22.09400000      44.44700000 
C      20.85400000      22.67500000      45.15200000 
C      21.83000000      23.05200000      46.71800000 
O      22.23700000      21.91600000      47.06900000 
C      19.77900000      22.07800000      45.25300000 
C      18.86000000      22.28100000      46.73400000 
C      19.07500000      21.87200000      44.12900000 
H      22.19100000      21.39400000      44.48300000 
H      20.67700000      23.87400000      44.88900000 
H      20.11400000      20.87300000      45.72000000 
H      17.89000000      21.84800000      46.53200000 
H      19.20200000      22.37800000      47.36900000 
H      18.45400000      23.61700000      46.30000000 
H      18.07300000      21.04300000      44.20300000 
H      18.60500000      22.73400000      43.76100000 
H      19.62300000      21.38100000      43.28200000 
N      21.61600000      24.03100000      47.23600000 
C      22.13200000      24.16000000      48.60900000 
C      21.09500000      24.58800000      49.79300000 
O      20.11300000      26.07900000      48.88000000 
C      23.19500000      25.31800000      48.47000000 
C      24.46800000      24.75100000      48.11500000 
C      25.27500000      23.93800000      49.20800000 
C      25.04200000      24.91900000      46.95900000 
C      26.79600000      23.22300000      48.38500000 
C      26.15900000      24.52700000      46.43100000 
C      26.98100000      23.52000000      47.27900000 
O      28.03800000      23.02800000      46.77700000 
H      21.17000000      24.95300000      46.71600000 
H      22.31900000      23.41900000      48.98300000 
H      23.02400000      26.14500000      48.19600000 
H      23.40200000      25.61200000      49.92700000 
H      25.01000000      23.68800000      49.95900000 
H      24.40800000      25.67400000      46.24500000 
H      27.03300000      22.74700000      49.15900000 
H      26.56300000      24.67000000      45.44300000 
H      28.06800000      22.78400000      45.94200000 
N      20.89500000      24.38400000      50.33200000 
C      19.85000000      24.88000000      51.86000000 
C      20.66500000      25.24300000      52.70300000 
O      21.26500000      23.72700000      53.49700000 
C      18.66400000      24.43300000      51.66700000 
C      17.76700000      24.76500000      53.00800000 
C      16.94500000      26.13100000      52.45400000 
C      16.40600000      23.99300000      53.47100000 
H      21.18500000      23.63700000      50.88600000 
H      19.74300000      26.06000000      51.34400000 
H      18.12600000      24.23000000      50.94500000 
H      18.82500000      23.23000000      52.19400000 
H      18.10900000      25.07700000      53.75000000 
H      16.39300000      26.64800000      53.11600000 
H      18.00900000      27.13000000      52.26500000 
H      16.59700000      26.18700000      51.51700000 
H      15.90100000      24.32100000      53.80500000 
H      15.86400000      23.74300000      52.21500000 
H      16.85300000      23.03300000      53.52700000 
N      20.79800000      26.24800000      53.56000000 
C      21.49200000      26.14900000      55.15000000 
C      20.70400000      27.28200000      55.58800000 
O      20.20900000      28.39100000      55.28300000 
C      22.97500000      26.70700000      54.81100000 
C      23.50900000      27.05900000      56.33000000 
C      23.92600000      28.47200000      56.61200000 
C      25.55300000      28.64100000      56.12500000 
N      26.10200000      28.68100000      54.74300000 
H      20.54900000      27.03600000      53.12600000 
H      21.52000000      25.45400000      55.27600000 
H      23.39400000      26.31100000      54.19500000 
H      22.81300000      27.97100000      54.27400000 
H      22.97100000      26.75800000      56.91300000 
H      24.46600000      26.33200000      56.19800000 
H      23.45600000      29.20000000      56.08600000 
H      24.01400000      28.61500000      57.51000000 
H      25.81900000      29.90600000      56.44100000 
H      26.25400000      28.09700000      56.76900000 
H      26.64400000      28.88400000      54.54000000 
H      25.80400000      27.51800000      54.43800000 
H      25.13500000      29.14000000      54.08000000 
N      19.98800000      26.81100000      57.02000000 
C      19.41100000      27.40400000      57.80900000 
C      19.78400000      27.52300000      59.13500000 
O      20.36100000      26.37700000      59.57600000 
C      18.02700000      27.47600000      57.71700000 
C      16.96300000      26.24300000      58.31500000 
C      16.81700000      26.46700000      59.76500000 
C      16.25800000      25.62800000      57.42700000 
H      20.40000000      25.81900000      57.20300000 
H      19.65700000      28.77200000      57.50100000 
H      17.37500000      28.40500000      58.15700000 
H      17.65800000      27.53200000      56.61500000 
H      18.00100000      25.42700000      58.30200000 
H      16.33400000      25.51500000      60.15100000 
H      17.44800000      26.80600000      60.37000000 
H      15.94100000      27.24900000      59.71600000 
H      15.54600000      24.89600000      57.83900000 
H      15.18100000      26.67700000      57.29200000 
H      16.34200000      25.51700000      56.47100000 
N      19.85000000      28.22200000      60.01800000 
C      20.28000000      28.36800000      61.41300000 
C      19.19900000      28.99400000      62.56600000 
O      18.76700000      30.59200000      61.68500000 
C      21.65100000      28.42800000      61.95300000 
C      22.19600000      30.21400000      61.56500000 
C      23.45100000      30.11200000      61.41900000 
O      24.10600000      31.63700000      61.94700000 
O      24.40100000      29.26000000      61.15400000 
H      19.50800000      29.39300000      59.62000000 
H      20.00900000      27.42200000      61.72100000 
H      21.77800000      28.59900000      62.63600000 
H      22.17700000      28.08300000      61.21000000 
H      21.80000000      30.34700000      60.20600000 
H      21.64900000      30.79000000      61.88700000 
N      17.33600000      34.27100000      63.29400000 
C      16.88300000      33.22400000      62.13000000 
C      17.52400000      33.66200000      60.76000000 
O      17.41900000      35.09900000      60.34800000 
C      15.51100000      33.50300000      61.90000000 
O      14.72500000      32.97600000      63.17200000 
C      14.86000000      32.27700000      60.75000000 
H      17.25600000      35.17400000      62.94400000 
H      17.19400000      32.40200000      62.35000000 
H      15.08400000      34.36200000      61.66400000 
H      13.94000000      33.12600000      63.22300000 
H      13.80700000      32.44200000      60.78600000 
H      15.19600000      32.70600000      59.88600000 
H      15.15400000      31.42600000      61.00400000 
N      18.45700000      32.82900000      59.97100000 
C      19.03400000      33.27500000      59.06100000 
C      18.61900000      31.92500000      57.84800000 
O      18.81600000      30.68800000      58.37600000 
C      20.53700000      33.11900000      58.98900000 
C      21.42600000      33.28400000      57.90800000 
C      22.71500000      33.30900000      57.74500000 
O      23.42100000      32.84200000      56.94700000 
O      23.30000000      33.92500000      58.86800000 
H      18.50000000      31.91400000      60.63300000 
H      18.57800000      33.98300000      58.46100000 
H      20.70700000      34.14700000      59.61600000 
H      20.85100000      32.43100000      59.60300000 
H      21.03700000      32.39900000      57.05500000 
H      20.91500000      34.22600000      57.07500000 
N      18.32100000      32.15200000      56.91300000 
C      18.08700000      31.06100000      55.81300000 
C      18.70600000      31.68600000      54.32300000 
O      18.50400000      33.04900000      54.08300000 
C      16.60400000      30.77900000      55.55600000 
C      15.94500000      32.22600000      55.35500000 
C      16.44800000      29.73100000      54.61200000 
H      18.16700000      33.17600000      56.43200000 
H      18.60700000      30.38800000      55.98200000 
H      16.33200000      30.38300000      56.39400000 
H      14.47200000      31.56300000      55.17700000 
H      15.70500000      32.59600000      55.80500000 
H      15.88100000      32.41300000      54.19300000 
H      15.39900000      29.28500000      54.43900000 
H      16.67800000      30.10900000      53.32400000 
H      17.15400000      28.83700000      54.57900000 
N      19.60900000      30.78400000      53.69000000 
C      20.05900000      31.29300000      52.46700000 
C      20.19000000      29.77000000      51.85400000 
O      20.24000000      29.01600000      51.96800000 
C      21.30800000      32.10700000      52.53500000 
C      22.36400000      31.02400000      53.35200000 
C      23.90100000      32.09500000      53.19400000 
C      23.80100000      33.60600000      53.65900000 
N      25.12600000      33.55500000      54.56400000 
H      19.70100000      30.03600000      54.06500000 
H      19.26000000      32.03100000      51.95900000 
H      21.74100000      32.16600000      51.42800000 
H      21.18200000      32.98200000      52.84000000 
H      22.23100000      31.42200000      54.34500000 
H      22.56600000      30.54500000      53.10500000 
H      24.60500000      31.42900000      53.65300000 
H      24.12100000      31.98900000      52.04500000 
H      24.35700000      34.12200000      52.84000000 
H      23.04600000      33.84900000      53.88900000 
H      24.99200000      34.65900000      54.97000000 
H      24.28300000      33.28400000      55.74500000 
H      25.55800000      33.26200000      54.70200000 
N      19.90200000      30.25900000      49.94900000 
C      19.64300000      29.44300000      49.18800000 
C      20.38500000      29.79900000      48.17300000 
O      20.11600000      30.78200000      47.60700000 
C      18.49300000      28.57800000      49.17800000 
H      19.75400000      31.14500000      49.90200000 
H      20.64100000      28.23900000      49.61400000 
H      18.37400000      27.91100000      48.36400000 
H      18.10800000      28.28200000      49.97500000 
H      17.79800000      29.46700000      48.78400000 
N      20.99800000      28.89300000      46.86900000 
C      21.01900000      29.16300000      45.76500000 
C      20.75000000      27.90700000      45.12000000 
O      20.72200000      26.70500000      45.50300000 
C      22.60300000      29.52400000      45.59700000 
C      23.00800000      30.79400000      46.02700000 
C      23.62700000      28.18500000      45.48000000 
H      21.07700000      27.96500000      47.45700000 
H      20.51400000      29.86900000      45.44700000 
H      22.49800000      29.74400000      43.98900000 
H      24.00900000      31.07900000      45.61600000 
H      22.31900000      31.55800000      45.84600000 
H      23.12000000      30.56300000      47.05600000 
H      24.56300000      28.72800000      45.18900000 
H      23.63000000      28.11200000      46.42400000 
H      23.36300000      27.58100000      44.97300000 
N      12.03100000      25.45300000      47.28900000 
C      13.52200000      25.29300000      47.50500000 
C      14.18800000      26.90900000      47.94000000 
O      14.69100000      26.68900000      48.85400000 
C      14.19800000      24.91100000      46.18600000 
C      15.79900000      24.80800000      46.41500000 
C      13.65400000      23.51400000      45.86600000 
H      11.85600000      25.60900000      45.92500000 
H      13.53500000      24.66800000      48.25800000 
H      14.16100000      25.42300000      45.43800000 
H      16.36000000      24.40500000      45.74900000 
H      16.20400000      25.95000000      46.65900000 
H      16.05100000      24.32200000      47.52900000 
H      14.52500000      22.99900000      45.04100000 
H      14.04600000      22.64800000      46.78300000 
H      12.90800000      23.39600000      45.60500000 
N      13.60700000      27.62800000      47.17400000 
C      14.00500000      29.17500000      47.71400000 
C      13.52600000      29.33200000      48.99600000 
O      14.34800000      30.07300000      49.94500000 
C      13.78100000      30.23500000      46.72500000 
C      14.01900000      31.58900000      47.01900000 
C      14.53600000      29.93300000      45.40500000 
H      13.22200000      27.74600000      46.52000000 
H      15.34600000      29.09300000      47.77300000 
H      12.66700000      30.06900000      46.47300000 
H      13.77500000      32.28700000      46.43900000 
H      13.34600000      31.84800000      48.12300000 
H      15.04400000      31.76100000      47.43800000 
H      14.15500000      30.75500000      44.55200000 
H      15.55900000      30.11200000      45.48400000 
H      14.35000000      28.98300000      44.89600000 
N      12.61800000      28.99700000      49.21200000 
C      11.55000000      29.14400000      50.72200000 
C      12.36700000      28.33200000      51.58100000 
O      12.79700000      28.72600000      52.97000000 
C      10.27900000      29.34600000      50.49600000 
O       9.84100000      30.06500000      49.32500000 
C       9.73200000      30.00300000      51.89700000 
H      11.88400000      28.52800000      48.74600000 
H      12.15800000      30.27800000      51.02700000 
H       9.89300000      28.08800000      50.31200000 
H       9.88500000      29.75400000      48.83100000 
H       8.44600000      29.72400000      51.69600000 
H       9.84200000      29.05900000      52.72900000 
H       9.87100000      30.54300000      51.99100000 
N      12.16500000      27.12500000      51.43800000 
C      12.97300000      25.87900000      52.57800000 
C      11.73400000      25.57400000      53.41300000 
O      11.65400000      25.91000000      54.36100000 
H      11.86300000      26.58300000      50.55000000 
H      13.19000000      25.09900000      51.67900000 
H      13.53100000      26.30200000      52.81300000 
N      11.19700000      19.49200000      50.19500000 
C      12.02500000      20.26700000      49.68000000 
C      12.87300000      19.14500000      48.98100000 
O      12.61300000      19.33900000      47.24100000 
C      13.33400000      20.61900000      50.69900000 
C      14.13600000      21.80800000      50.04200000 
S      15.43800000      21.34300000      49.05300000 
C      16.55000000      20.58600000      50.40200000 
H      11.36700000      18.87300000      51.36800000 
H      11.71900000      20.78200000      49.10000000 
H      12.47000000      21.24100000      51.42500000 
H      13.70200000      20.14000000      51.10900000 
H      13.33000000      22.56700000      49.29800000 
H      14.39400000      22.50900000      50.81100000 
H      17.63000000      20.57100000      49.84600000 
H      16.91900000      21.88200000      51.01300000 
H      16.30200000      20.16700000      50.90900000 
H      31.82484250      26.29318069      49.61805860 
H      30.03670502      30.90340684      52.25463427 
H      20.40223147      23.31302277      60.33946819 
H      23.09872432      19.27520839      47.79598950 
H      22.94411037      21.11342987      40.16945314 
H      19.00379109      28.47823463      63.40019396 
H      16.80238963      34.17143696      64.01187685 
H      20.52432488      27.88328609      44.14608605 
H      11.60358854      24.72006197      47.58920208 
H      10.98795622      25.03485037      53.02218501 
H      10.42222991      19.92865843      50.33306058 
H      13.41182152      18.50853171      49.53288721 
