 258 
 
N                46.4399765348       37.6223493971       52.1770789958
C                46.6880631195       39.0448401530       52.1556554494
C                48.1697626972       39.3444039244       51.9175461919
O                49.0569972553       38.5635160676       52.2383190356
C                46.1403955606       39.6984573597       53.4452455045
C                46.9544695648       39.2697985324       54.6695146180
C                44.6603035229       39.3429978098       53.6058411880
C                46.4299468331       39.8798593269       55.9643574042
H                46.8352866445       37.0749868667       52.9310264502
H                46.1404698525       39.4393643587       51.2946488445
H                46.2384497698       40.7791892275       53.3040822319
H                46.9334331881       38.1816800794       54.7502245805
H                47.9919879424       39.5678482849       54.5114680823
H                44.1739541224       40.0415888187       54.2791742407
H                44.1567517502       39.3875921271       52.6440212585
H                44.5511852611       38.3370926123       54.0017964350
H                47.1044021639       39.6547454639       56.7860088296
H                46.3471007327       40.9594965760       55.8668030087
H                45.4514560819       39.4764471724       56.2038353505
N                48.3895478595       40.5384023730       51.3518738835
C                49.7091747842       41.0459992450       51.0567965204
C                49.6645795305       42.5677687693       51.1331547031
O                48.6324187356       43.2126841057       51.0185566352
C                50.1738774549       40.6041252274       49.6419379946
C                51.6512985512       40.2645188168       49.5506724895
C                52.1342392405       40.0047067636       48.0815342886
O                53.1255857180       39.2674661364       47.9541274593
O                51.5220386823       40.5970031930       47.1685479025
H                47.6114016751       41.1307019198       51.0774537959
H                50.3971190358       40.6343436937       51.8059223312
H                49.5949145280       39.7179794522       49.3728864979
H                49.9517245232       41.3799473868       48.9097372722
H                52.2691006258       41.0966826696       49.9022479758
H                51.8930075257       39.3855766695       50.1524465192
N                50.8607639513       43.1570236634       51.2722556800
C                51.0280871177       44.5981641974       51.2661913390
C                52.1936355696       44.9362533756       50.3306625312
O                53.2047474509       44.2308572106       50.3311941410
C                51.2076356995       45.1583258296       52.6895741807
C                52.2486786270       44.5014378057       53.5840736604
O                52.2005278491       44.6499918231       54.8019406687
N                53.1940728159       43.7586045520       53.0050851684
H                51.6952447951       42.5928494715       51.3450977440
H                50.1025159727       45.0196399013       50.8612976053
H                51.4441110250       46.2231231590       52.6284530335
H                50.2546989099       45.0747692233       53.2216774384
H                53.9018077095       43.3502612371       53.5938791896
H                53.3553901736       43.7754422240       51.9971887769
N                43.8727838382       52.7972318680       59.2993545801
C                44.3002921472       51.4930155948       59.7581836437
C                44.6280178485       51.5091034605       61.2464979612
O                45.2612302785       52.4313812264       61.7510191262
H                43.1212431227       53.2228532925       59.8216173736
H                43.5230355191       50.7538072604       59.5602480260
H                45.2044673340       51.2308225256       59.2007037163
N                55.9330889679       40.4780189479       61.4624962015
C                55.8967133102       40.9584676219       60.0858771375
C                54.4983136158       40.7335836345       59.4952483429
O                54.2805114735       40.0602452162       58.4998554414
C                56.9999488793       40.2801806044       59.2807648194
C                58.4230339249       40.4069189522       59.9177259555
O                58.5165830138       40.8819738141       61.0738176182
O                59.3663238391       39.9984371455       59.2219306412
H                56.8740041355       40.6319811666       61.8373798380
H                56.0945785560       42.0404631916       60.1090914304
H                56.7795957023       39.2132136690       59.1879216599
H                57.0546011992       40.7017386328       58.2761810703
N                53.5422565117       41.4274911602       60.1355987828
C                52.1325200157       41.1255924651       59.9425653088
C                51.5716838889       42.0934035535       58.8897806620
O                51.5842671938       43.3193924661       59.0223190715
C                51.4166995943       41.0500125708       61.3054216890
C                51.4466183986       42.2782270510       62.2320293993
C                50.3404507567       43.2809126219       61.9041523038
C                51.2865350162       41.8153127021       63.6827354637
H                53.7967617006       41.9199678943       60.9794123856
H                52.1111240818       40.1175414931       59.5162424879
H                50.3804659287       40.7615904746       61.1293676565
H                51.9248950908       40.2282344181       61.8191924509
H                52.4208056224       42.7756362079       62.1566016421
H                50.4128269354       44.1338260470       62.5749041080
H                50.4430441998       43.6433539787       60.8864676694
H                49.3660861193       42.8153492384       62.0321311148
H                51.3292073843       42.6796492345       64.3392392164
H                50.3337736298       41.3122828412       63.8262027942
H                52.0959708698       41.1446920894       63.9656078276
N                51.0491630986       41.5661964937       57.7796001755
C                50.6325869809       42.4907935141       56.7315669001
C                49.8363394863       43.6667568627       57.2962779995
O                48.8372866186       43.4952905409       57.9888990745
C                49.7804761950       41.6089286888       55.8257083870
C                50.5268942085       40.2778624070       55.8707340751
C                51.0323654353       40.1871166987       57.3161596246
H                51.5181026429       42.8757018251       56.2103164373
H                48.7872314257       41.5144765894       56.2634405377
H                49.6895071596       42.0222681999       54.8238881836
H                49.9010226511       39.4288899804       55.6076351653
H                51.3681199755       40.3020242103       55.1776876862
H                50.3566805590       39.5937361155       57.9382130703
H                52.0343331885       39.7504585328       57.3570304361
N                50.2691504825       44.8698135754       56.8976944104
C                49.4013172936       46.0254859366       57.0444094902
C                48.0687385791       45.6510022993       56.3744622457
O                48.0292244080       45.1154810804       55.2760239259
C                50.0622010445       47.2559939408       56.4082419745
C                49.8670210566       48.5608390376       57.1915164893
C                50.9411152812       49.5678238106       56.7760468256
C                48.4824465667       49.1686887222       56.9816952344
H                50.9796113018       44.9099334684       56.1693021585
H                49.2272155036       46.1913314463       58.1151823083
H                51.1331434540       47.0511811814       56.3550324818
H                49.7018952749       47.3836623866       55.3861593995
H                49.9980702636       48.3422290726       58.2568989019
H                50.7985048557       50.5079729052       57.3025473411
H                51.9361602839       49.1932866686       57.0074696182
H                50.8855106970       49.7674064485       55.7081221391
H                48.3788727593       50.0659826615       57.5886768750
H                48.3564963032       49.4455920583       55.9389200794
H                47.6880149426       48.4834027611       57.2629472201
N                46.9835002912       45.9588345278       57.0891913310
C                45.6170375022       45.7521368946       56.6572841886
C                44.8134260330       46.9433470645       57.1964153118
O                45.3330896389       47.7910231036       57.9074211964
C                45.1161403899       44.3702347654       57.1464791772
C                44.9330576799       44.3825496923       58.6635604986
C                43.8539376253       43.8900988227       56.4269268107
H                47.0777738112       46.5076041202       57.9344913946
H                45.6155604510       45.7658644783       55.5608674587
H                45.9291464255       43.6801859304       56.8943469791
H                44.5432859474       43.4246740344       58.9969704380
H                45.8923284083       44.5744040251       59.1381415883
H                44.2326591950       45.1623284401       58.9577689693
H                43.7761553538       42.8121717994       56.5354247047
H                42.9461194088       44.3148744441       56.8509290054
H                43.9144132820       44.1034954965       55.3614640456
N                43.5344483844       46.9920921106       56.8069186769
C                42.6451412701       48.0742996360       57.1777888329
C                42.2607370943       48.0569978044       58.6600327261
O                42.3233564929       49.0714023610       59.3366813113
C                41.3770280622       47.9625222844       56.3237650392
C                40.3324807414       49.0475965132       56.6018890510
C                40.6434549479       50.3699792817       55.9066970341
N                40.5812174727       50.1789512946       54.4698898456
C                40.9426311627       51.0654022855       53.5575651133
N                41.2847484342       52.3151744032       53.8983156658
N                41.0746339756       50.6750461973       52.2939603035
H                43.1332886880       46.2090587371       56.3142598016
H                43.1848741573       49.0134634521       57.0084409445
H                41.6652540012       47.9798419515       55.2726675852
H                40.9387059629       46.9838450271       56.5266515503
H                39.3630847401       48.6959741015       56.2450227048
H                40.2605251023       49.2230898157       57.6745084941
H                39.9084708973       51.1166497352       56.2208882383
H                41.6497217525       50.7011792483       56.1795966645
H                40.2819506945       49.2678193443       54.1378148305
H                40.9851521849       52.6862988735       54.7862233842
H                41.4448621108       52.9715297456       53.1484757910
H                40.7383027367       49.7613314013       52.0306494868
H                41.3137268147       51.3385441330       51.5692526687
N                41.7957865048       46.8926180399       59.1336882156
C                41.2071642421       46.8396893601       60.4605493256
C                41.4997592777       45.4603198989       61.0257470787
O                41.1468849038       44.4477907512       60.4309317432
C                39.7006353772       47.1214552345       60.3618883516
C                39.0715236389       47.3622028576       61.7295332551
C                37.5677293277       47.6334398443       61.6464923365
C                37.2492342230       48.9201490096       60.8897992871
N                35.7894450683       49.2077921764       60.9704210918
H                41.5906811723       46.1082931452       58.5230215950
H                41.6746798987       47.6146289091       61.0750092067
H                39.6018918558       48.0195244339       59.7520434615
H                39.2129282234       46.2816063268       59.8605309365
H                39.2329495921       46.4836308224       62.3583011938
H                39.5836839432       48.1965283896       62.2150624032
H                37.0821357004       46.7790339560       61.1690547875
H                37.1990033999       47.7104112714       62.6698970924
H                37.8103246182       49.7450453767       61.3318613015
H                37.5213455573       48.8188220651       59.8400032108
H                35.5497541127       50.0440625076       60.4179799955
H                35.2608006597       48.3962389002       60.6137268920
H                35.5175229636       49.3637010116       61.9524158147
N                42.2163833672       45.4372566381       62.1524394511
C                42.5346046178       44.1895883210       62.8165849074
C                42.1747271476       44.3002240545       64.2981740167
O                42.7757696513       45.0590438005       65.0513759937
C                44.0197249075       43.8400774009       62.6542263796
C                44.3197578049       42.4713057223       63.2644284745
C                45.7885926615       42.0594512490       63.0988310422
N                46.2534335473       42.0921405982       61.7235593715
C                46.0305430934       41.1605797811       60.7974443869
N                45.4830045747       39.9821956660       61.1129309825
N                46.5055131412       41.3492142918       59.5673609068
H                42.5523634055       46.2965307243       62.5694152286
H                41.9085968404       43.4217035615       62.3511583348
H                44.2342499975       43.8455340138       61.5842698383
H                44.6090108259       44.6190217611       63.1427894431
H                44.0979563007       42.5032901574       64.3333583732
H                43.6601514391       41.7230398734       62.8197284736
H                46.4174054258       42.7409261020       63.6710646799
H                45.9131031254       41.0555425021       63.5048571204
H                46.6231089263       42.9794399548       61.4103143115
H                44.8783526358       39.8379609340       61.9346522102
H                45.2680058502       39.3528797342       60.3513516811
H                47.0342557967       42.1734718837       59.3149231003
H                46.3300942607       40.6744030061       58.8379400005
N                40.4118262118       40.1617433429       60.8730667136
C                41.2473263453       40.7891400502       59.8699022742
C                40.3305085603       41.1632139292       58.6979275197
O                39.7092790792       40.3227263729       58.0612147459
C                42.4100471239       39.8545605602       59.4757107003
C                41.9336831017       38.4790594655       59.0046578374
C                43.2448215114       40.5353999043       58.3926725117
H                40.0800456536       39.2357286199       60.6473881593
H                41.6295604717       41.7116036224       60.3181739706
H                42.9862942440       39.7091004664       60.3941617601
H                42.7668646252       37.9142519286       58.5946020987
H                41.5211383268       37.9110659628       59.8362150726
H                41.1713700094       38.5753990967       58.2362642460
H                44.1193510212       39.9376764217       58.1532802992
H                42.6393109170       40.6281695470       57.4945351650
H                43.5454109706       41.5310619373       58.7067321846
N                40.2856408824       42.4779176316       58.4262105765
C                39.2212385500       43.0000361826       57.6009607155
C                39.7058926422       44.1697191447       56.7538688409
O                40.6680514063       44.8683793102       57.0371741982
C                38.0512401906       43.4874856825       58.4785233417
C                37.4893193846       42.3838674433       59.3608575832
C                36.1560319183       42.7807441090       60.0761224574
O                35.5474966841       43.7852239057       59.6624364555
O                35.8099106654       42.0334675542       61.0136358304
H                40.6836104357       43.1462700931       59.0798385399
H                38.8843751121       42.1768058054       56.9606000725
H                38.4073462399       44.2954763522       59.1225092783
H                37.2423984617       43.8729773160       57.8548806261
H                37.2710614249       41.4859212772       58.7735148806
H                38.1945872512       42.1057622346       60.1492824216
N                38.9462462275       44.3620010241       55.6717364386
C                39.0184605563       45.4392095725       54.7168022970
C                37.6484434554       45.4483237666       54.0091818893
O                36.8941436583       44.4841221896       54.1318169022
C                40.1545723692       45.2069261382       53.7112739100
C                40.4534139078       46.4145286829       52.8506040441
O                40.2661485917       47.5682988818       53.2119163104
N                41.0539934576       46.1299883852       51.6884349458
H                38.1463930416       43.7614756104       55.4948824666
H                39.1732855996       46.3965828809       55.2244374500
H                41.0584382235       44.9773991285       54.2834500502
H                39.9183393642       44.3444398944       53.0858029696
H                41.2138919105       46.8753236048       51.0271901796
H                41.0832825598       45.1851988164       51.3445188289
H                45.5537963409       37.4726244837       52.2246932200
H                52.1328866750       45.7272569108       49.7218744078
H                44.5641411859       53.3719264222       59.3412017693
H                44.3257484835       50.7578171892       61.8331854159
H                55.3297175949       40.9296855516       61.9543704388
H                41.4329142228       43.7456984356       64.6752879550
H                40.8725739211       40.0845704660       61.6423234299
H                37.3774466699       46.2349640325       53.4544226313
