358
Properties=species:S:1:pos:R:3 pbc="F F F"
N      42.36400000      46.20800000      70.31100000 
C      42.60700000      45.10200000      71.26600000 
C      41.48800000      45.15200000      72.32500000 
O      41.31300000      46.21500000      72.96900000 
C      43.95000000      45.28600000      71.97000000 
C      45.19600000      45.30100000      71.04600000 
C      46.43100000      45.67000000      71.84700000 
C      45.39500000      43.95900000      70.33700000 
H      42.38000000      47.12700000      70.65200000 
H      42.55200000      44.19100000      70.74000000 
H      43.93000000      46.21600000      72.53300000 
H      44.06300000      44.47600000      72.70200000 
H      45.04100000      46.06200000      70.30500000 
H      47.30500000      45.71900000      71.21400000 
H      46.32300000      46.60600000      72.35900000 
H      46.64100000      44.89800000      72.62100000 
H      46.30100000      43.97600000      69.73800000 
H      45.47900000      43.14100000      71.04900000 
H      44.57000000      43.73000000      69.65800000 
N      47.87000000      39.98900000      81.97500000 
C      48.69700000      39.76500000      80.78900000 
C      49.64500000      40.91400000      80.55500000 
O      49.35500000      42.05800000      81.00800000 
C      47.82500000      39.55200000      79.54200000 
H      47.50900000      40.91400000      82.08200000 
H      49.29700000      38.85800000      80.96800000 
H      48.42100000      39.41000000      78.66300000 
H      47.20400000      38.67700000      79.68400000 
H      47.17900000      40.40900000      79.40900000 
N      51.54400000      42.90100000      77.17400000 
C      51.60400000      43.08300000      75.71900000 
C      52.94800000      43.75600000      75.39700000 
O      53.28400000      44.76500000      76.04200000 
C      50.48700000      43.99400000      75.22800000 
C      49.07300000      43.60600000      75.54600000 
C      48.62900000      42.37700000      75.97200000 
C      48.06200000      44.61900000      75.41300000 
C      47.35200000      42.08800000      76.27000000 
C      46.76700000      44.31900000      75.70200000 
C      46.38100000      43.11600000      76.14100000 
O      45.04100000      42.89300000      76.45200000 
H      51.55900000      43.69000000      77.73100000 
H      51.55900000      42.11000000      75.26100000 
H      50.67500000      44.99900000      75.59600000 
H      50.60600000      44.06000000      74.12700000 
H      49.37300000      41.55900000      76.07400000 
H      48.35500000      45.58100000      75.08600000 
H      47.03300000      41.10400000      76.61300000 
H      45.99100000      45.12000000      75.59000000 
H      44.85100000      42.07400000      76.89700000 
N      54.26200000      41.76000000      67.55800000 
C      53.26500000      41.66700000      68.60800000 
C      53.44800000      40.32900000      69.32500000 
O      53.42500000      39.28200000      68.71000000 
C      51.82500000      41.80300000      68.05600000 
C      50.76500000      41.51900000      69.11900000 
C      51.62000000      43.18600000      67.43100000 
H      54.20000000      41.06300000      66.82900000 
H      53.45000000      42.48300000      69.30300000 
H      51.72300000      41.05300000      67.26500000 
H      49.78900000      41.70700000      68.72400000 
H      50.79700000      40.51200000      69.47400000 
H      50.90500000      42.18800000      69.98000000 
H      50.64800000      43.27400000      67.01900000 
H      51.74700000      43.96100000      68.19400000 
H      52.34900000      43.38000000      66.64600000 
N      53.61500000      40.44000000      70.66100000 
C      53.79600000      39.24700000      71.51800000 
C      52.84400000      39.42500000      72.68100000 
O      52.97700000      40.42800000      73.45300000 
C      55.26800000      39.17600000      71.98400000 
C      55.56800000      38.16700000      73.07400000 
C      57.04800000      38.22900000      73.47700000 
C      57.30300000      37.49600000      74.78500000 
N      58.75300000      37.55900000      75.17700000 
H      53.70500000      41.30300000      71.08100000 
H      53.52800000      38.38200000      70.96200000 
H      55.85400000      38.94100000      71.08600000 
H      55.56300000      40.16200000      72.29500000 
H      54.97000000      38.41000000      73.95900000 
H      55.30200000      37.17400000      72.77900000 
H      57.66100000      37.79000000      72.66900000 
H      57.36000000      39.25400000      73.58500000 
H      56.75700000      37.92700000      75.57200000 
H      57.05200000      36.43300000      74.70400000 
H      58.92300000      37.06600000      76.02300000 
H      59.35900000      37.15200000      74.45800000 
H      59.04800000      38.51100000      75.30600000 
N      51.89100000      38.53600000      72.88600000 
C      50.91100000      38.57200000      73.96000000 
C      51.12400000      37.36900000      74.82300000 
O      51.05500000      36.23500000      74.37000000 
C      49.44900000      38.64300000      73.38700000 
C      49.25300000      39.98600000      72.66000000 
C      48.44200000      38.42200000      74.49900000 
C      47.97900000      40.02800000      71.79300000 
H      51.77800000      37.77300000      72.18500000 
H      51.10500000      39.48900000      74.50700000 
H      49.36700000      37.83600000      72.66800000 
H      49.22100000      40.78200000      73.40000000 
H      50.10900000      40.18000000      72.02100000 
H      47.41700000      38.53500000      74.11000000 
H      48.49700000      37.44600000      74.93700000 
H      48.55300000      39.16600000      75.30100000 
H      47.92900000      40.99300000      71.27600000 
H      47.99500000      39.25800000      71.04900000 
H      47.09000000      39.93400000      72.38100000 
N      51.38400000      37.60900000      76.15100000 
C      51.62900000      36.50700000      77.06100000 
C      50.82300000      36.69100000      78.35100000 
O      50.59800000      37.85100000      78.82700000 
C      53.14300000      36.35400000      77.40600000 
C      53.85600000      37.52000000      78.05500000 
C      55.29900000      37.10900000      78.34400000 
N      55.99800000      38.11100000      79.15800000 
C      57.24200000      37.99600000      79.56400000 
N      57.99300000      36.98100000      79.16200000 
N      57.74800000      38.90300000      80.41200000 
H      51.42100000      38.54500000      76.48000000 
H      51.31300000      35.62000000      76.60700000 
H      53.23100000      35.44800000      78.01400000 
H      53.63300000      36.11000000      76.44400000 
H      53.81900000      38.38500000      77.45200000 
H      53.35900000      37.75600000      79.01600000 
H      55.31800000      36.16900000      78.86600000 
H      55.81700000      36.98300000      77.40500000 
H      55.47000000      38.89900000      79.49800000 
H      57.69300000      36.30800000      78.54000000 
H      58.94600000      36.87800000      79.51700000 
H      57.17000000      39.65100000      80.74400000 
H      58.68900000      38.85500000      80.71500000 
N      50.38000000      35.57300000      78.89200000 
C      49.50000000      35.51900000      80.06600000 
C      50.27100000      35.09600000      81.29800000 
O      51.08800000      34.16000000      81.24500000 
C      48.37300000      34.48600000      79.75100000 
C      47.44600000      34.20100000      80.90300000 
C      46.31200000      33.22000000      80.58600000 
O      46.06400000      32.97600000      79.38400000 
O      45.71200000      32.73900000      81.58900000 
H      50.63900000      34.70900000      78.49200000 
H      49.06200000      36.47700000      80.21100000 
H      47.83000000      34.85700000      78.91500000 
H      48.86000000      33.55300000      79.42900000 
H      47.98800000      33.78500000      81.76200000 
H      46.99300000      35.11700000      81.26600000 
N      53.09000000      32.29500000      79.84400000 
C      52.73700000      31.45800000      78.74700000 
C      52.50400000      32.35000000      77.51900000 
O      51.65600000      33.27400000      77.58700000 
C      51.49200000      30.62000000      79.02600000 
C      51.26000000      29.46800000      78.04600000 
C      49.96000000      28.71200000      78.29700000 
N      49.70300000      28.41200000      79.71400000 
C      50.38500000      27.53500000      80.47000000 
N      50.17000000      27.51800000      81.80700000 
N      51.26100000      26.71000000      79.95900000 
H      52.45800000      33.01600000      80.13300000 
H      53.57400000      30.80000000      78.53600000 
H      51.61400000      30.22600000      80.03500000 
H      50.61900000      31.27300000      79.05700000 
H      51.23900000      29.82300000      77.02900000 
H      52.11900000      28.78700000      78.11400000 
H      49.12300000      29.31100000      77.98200000 
H      49.93100000      27.79700000      77.72200000 
H      49.03200000      28.98100000      80.17200000 
H      49.57800000      28.17700000      82.22700000 
H      50.70600000      26.88300000      82.33900000 
H      51.42600000      26.62700000      78.99200000 
H      51.78100000      26.12200000      80.59700000 
N      53.19100000      32.11400000      76.39400000 
C      53.00500000      32.86400000      75.18800000 
C      51.76900000      32.34600000      74.47600000 
O      51.70400000      31.15100000      74.11400000 
C      54.24500000      32.69300000      74.26900000 
O      55.36700000      33.11500000      75.04900000 
C      54.12500000      33.49200000      72.99300000 
H      53.88200000      31.37700000      76.41900000 
H      52.91200000      33.89000000      75.41600000 
H      54.35000000      31.62000000      74.03500000 
H      56.19000000      32.89500000      74.64500000 
H      55.03100000      33.37800000      72.40400000 
H      53.29900000      33.18200000      72.38100000 
H      54.01100000      34.54700000      73.22400000 
N      50.75400000      33.18000000      74.30400000 
C      49.48900000      32.78300000      73.73400000 
C      49.38700000      33.09500000      72.28200000 
O      48.93500000      32.23500000      71.47900000 
C      48.27700000      33.41500000      74.54400000 
C      46.94900000      33.06000000      73.90300000 
C      48.31800000      32.92100000      75.98700000 
H      50.86500000      34.16400000      74.60400000 
H      49.41600000      31.72200000      73.82400000 
H      48.41800000      34.48600000      74.53300000 
H      46.14500000      33.47100000      74.48700000 
H      46.85000000      33.48400000      72.88500000 
H      46.81200000      31.99500000      73.82000000 
H      47.47800000      33.32300000      76.53400000 
H      48.24300000      31.83100000      76.02400000 
H      49.22300000      33.20800000      76.49900000 
N      49.77600000      34.31600000      71.84200000 
C      49.61100000      34.71000000      70.45000000 
C      50.83700000      35.49500000      70.06800000 
O      51.19800000      36.51200000      70.72200000 
C      48.31100000      35.48900000      70.23600000 
C      47.74800000      35.41000000      68.82900000 
C      47.47200000      36.55500000      68.09200000 
C      47.42300000      34.17900000      68.23600000 
C      46.88700000      36.50800000      66.82000000 
C      46.86500000      34.08400000      67.01500000 
C      46.58900000      35.21500000      66.27900000 
O      46.02300000      35.08500000      65.03900000 
H      50.11500000      34.98900000      72.49900000 
H      49.58900000      33.80000000      69.87700000 
H      47.57800000      35.06900000      70.91800000 
H      48.44300000      36.52900000      70.52900000 
H      47.69400000      37.52300000      68.49400000 
H      47.61400000      33.26700000      68.82100000 
H      46.66700000      37.36100000      66.28300000 
H      46.62200000      33.13100000      66.57600000 
H      45.72700000      35.90900000      64.59500000 
N      51.53600000      35.06500000      68.99900000 
C      52.76700000      35.64700000      68.52600000 
C      52.76700000      35.49900000      67.01500000 
O      52.59600000      34.37700000      66.51600000 
C      53.97400000      34.93400000      69.12100000 
C      55.32700000      35.45400000      68.64100000 
C      56.51800000      34.76000000      69.24800000 
O      56.40200000      33.60100000      69.68500000 
O      57.63700000      35.42300000      69.23100000 
H      51.22600000      34.23200000      68.55500000 
H      52.77600000      36.69900000      68.79100000 
H      53.91900000      35.03300000      70.20300000 
H      53.89700000      33.87200000      68.90300000 
H      55.41000000      35.32900000      67.54100000 
H      55.40900000      36.52400000      68.81500000 
N      52.98400000      36.56500000      66.27700000 
C      53.13700000      36.57600000      64.84500000 
C      54.22000000      37.55200000      64.50300000 
O      54.25700000      38.68300000      65.03200000 
C      51.86500000      36.94600000      64.10500000 
C      50.68200000      36.01400000      64.38400000 
C      49.42900000      36.32400000      63.54600000 
C      48.95200000      37.76400000      63.74400000 
N      47.74300000      38.06000000      62.92500000 
H      53.08400000      37.48900000      66.75400000 
H      53.43200000      35.56200000      64.56300000 
H      51.60600000      37.98900000      64.39300000 
H      52.06100000      36.96600000      63.03700000 
H      50.97000000      35.00600000      64.20500000 
H      50.40100000      36.08500000      65.44200000 
H      49.68200000      36.19600000      62.48400000 
H      48.65400000      35.64400000      63.77800000 
H      48.68200000      37.93600000      64.78700000 
H      49.70000000      38.48400000      63.46500000 
H      47.60000000      39.03900000      62.87200000 
H      47.87800000      37.72100000      61.97200000 
H      46.87300000      37.65900000      63.28600000 
N      41.73200000      42.07600000      67.53700000 
C      42.09000000      40.87200000      68.26700000 
C      41.30200000      40.93100000      69.60700000 
O      41.47100000      41.89900000      70.35900000 
C      43.60400000      40.74200000      68.49800000 
C      44.31800000      40.53300000      67.14900000 
C      43.94100000      39.61500000      69.47900000 
C      45.82900000      40.66400000      67.19900000 
H      42.01300000      42.95200000      67.89400000 
H      41.74000000      40.01700000      67.71600000 
H      43.95600000      41.68100000      68.92700000 
H      44.04300000      39.55500000      66.75400000 
H      43.93400000      41.27400000      66.43000000 
H      44.97900000      39.49300000      69.60000000 
H      43.51300000      39.79600000      70.45900000 
H      43.52300000      38.66000000      69.11600000 
H      46.26500000      40.58600000      66.21600000 
H      46.13100000      41.62500000      67.62400000 
H      46.28700000      39.88500000      67.82400000 
N      40.14800000      38.70300000      73.06200000 
C      40.46300000      37.57700000      73.90900000 
C      39.36700000      37.41800000      74.95600000 
O      39.04600000      38.38000000      75.68800000 
C      41.90900000      37.64200000      74.50100000 
C      42.19300000      38.98800000      75.18700000 
C      42.91300000      37.32600000      73.39400000 
C      43.61200000      39.08800000      75.81500000 
H      40.13300000      39.61800000      73.48500000 
H      40.42800000      36.69100000      73.27200000 
H      41.95900000      36.85900000      75.25600000 
H      42.10300000      39.79300000      74.47200000 
H      41.47100000      39.16800000      75.96600000 
H      43.90900000      37.21900000      73.80800000 
H      42.66000000      36.41500000      72.90000000 
H      42.94200000      38.12500000      72.66200000 
H      43.72100000      40.02800000      76.32200000 
H      43.77100000      38.28900000      76.53500000 
H      44.38500000      39.01700000      75.06600000 
N      42.16200000      29.92200000      77.01200000 
C      42.13100000      31.15000000      76.21900000 
C      41.45100000      30.92700000      74.90600000 
O      41.76400000      29.93600000      74.19500000 
C      43.63900000      31.48700000      75.99900000 
C      44.41200000      30.54400000      76.94800000 
C      43.50800000      29.33400000      77.08900000 
H      41.64100000      31.93600000      76.78300000 
H      43.91600000      31.27700000      74.97300000 
H      43.84200000      32.52700000      76.19600000 
H      45.38400000      30.28600000      76.55500000 
H      44.54700000      31.02000000      77.91100000 
H      43.65100000      28.62400000      76.27000000 
H      43.65300000      28.81000000      78.02600000 
N      40.88800000      32.95600000      71.35200000 
C      41.42500000      34.09100000      70.61700000 
C      40.72500000      34.17400000      69.27900000 
O      40.66100000      33.13000000      68.53500000 
C      42.94400000      33.91300000      70.37500000 
C      43.53300000      35.16800000      69.70900000 
C      43.69200000      33.61500000      71.69500000 
H      41.13100000      32.04600000      71.01700000 
H      41.23000000      34.97000000      71.18500000 
H      43.07600000      33.07300000      69.71900000 
H      44.61400000      35.03900000      69.58200000 
H      43.11500000      35.34500000      68.73400000 
H      43.37700000      36.04600000      70.31800000 
H      44.74300000      33.51300000      71.48500000 
H      43.56000000      34.40200000      72.41100000 
H      43.35200000      32.68100000      72.13700000 
N      40.86200000      36.64900000      65.64000000 
C      41.68900000      37.62800000      64.88700000 
C      40.85900000      38.01400000      63.67300000 
O      40.87400000      37.34600000      62.66200000 
C      43.00800000      36.95300000      64.53200000 
C      44.06900000      37.80300000      63.89800000 
O      43.77300000      38.99300000      63.50200000 
O      45.21500000      37.29500000      63.79300000 
H      40.63900000      35.83400000      65.16900000 
H      41.85500000      38.48800000      65.52800000 
H      43.42300000      36.51900000      65.43700000 
H      42.81300000      36.12100000      63.85200000 
H      42.99002515      46.18981913      69.66465492 
H      40.91769283      44.34694138      72.48818809 
H      47.15655372      39.44086710      81.95166044 
H      50.49306468      40.76678854      80.04596653 
H      50.78149377      42.47568096      77.39237574 
H      53.53539235      43.38169247      74.67945968 
H      54.19325066      42.55838477      67.14829855 
H      50.12582583      35.57063424      82.16612833 
H      53.20606368      31.79148461      80.58088634 
H      54.92780628      37.30220553      63.84223303 
H      42.08831375      42.04374646      66.71116695 
H      40.67094050      40.19391887      69.84881670 
H      40.75439130      38.75939077      72.39934649 
H      38.89945069      36.54030250      75.06109397 
H      41.72708605      30.05485749      77.78865871 
H      40.74759696      31.56492137      74.59250281 
H      41.17622763      32.98629721      72.20406039 
H      40.31706203      35.03694107      68.98080656 
H      41.29944625      36.39621061      66.38480756 
H      40.28613019      38.83323571      63.69894272 
