485
Properties=species:S:1:pos:R:3 pbc="F F F"
N      46.54500000      37.35700000      52.35400000 
C      46.79800000      38.98600000      52.30800000 
C      48.20500000      39.22900000      52.31600000 
O      49.31700000      38.39400000      52.56900000 
C      46.37800000      39.46800000      54.12700000 
C      47.22400000      39.12600000      54.88500000 
C      44.45700000      39.37200000      53.63400000 
C      46.38500000      39.32300000      56.51000000 
H      47.23200000      36.90200000      53.16600000 
H      46.29700000      39.24700000      51.73000000 
H      46.40900000      40.54500000      53.73700000 
H      46.87800000      37.72100000      55.07700000 
H      47.93600000      39.10900000      54.94800000 
H      44.37600000      39.74700000      54.67700000 
H      44.34800000      39.43600000      53.18200000 
H      44.57000000      38.16900000      54.12100000 
H      47.17900000      39.18800000      57.18000000 
H      46.51800000      40.72400000      56.34100000 
H      45.62600000      39.19900000      56.59900000 
N      51.27200000      53.95400000      50.10600000 
C      51.21400000      52.92500000      50.20300000 
C      49.39500000      52.33200000      49.72100000 
O      48.99400000      52.63200000      49.75100000 
C      51.33100000      52.09200000      51.41300000 
C      50.69300000      52.47300000      52.74200000 
C      50.53300000      53.18900000      53.38100000 
C      49.66300000      51.26100000      53.23000000 
C      50.01300000      53.74500000      54.38600000 
C      49.10500000      51.27000000      53.72500000 
C      48.68400000      52.33100000      54.91100000 
H      49.65800000      54.61500000      50.61200000 
H      51.82500000      52.67900000      49.33800000 
H      51.91300000      51.07400000      51.24000000 
H      52.78200000      52.82400000      51.70500000 
H      51.36800000      54.31800000      53.23100000 
H      49.87400000      50.26400000      52.28400000 
H      49.73900000      54.40700000      55.07800000 
H      48.32100000      50.57100000      54.23300000 
H      48.28300000      52.58900000      55.53400000 
N      49.93700000      50.79800000      49.18100000 
C      48.86100000      50.15800000      48.95000000 
C      49.18400000      48.68100000      49.51500000 
O      49.64900000      48.40100000      49.78300000 
C      48.61500000      49.88700000      47.16900000 
C      48.43500000      51.30600000      46.58400000 
C      49.67800000      48.98000000      46.70300000 
H      50.77300000      50.43600000      49.16600000 
H      47.80200000      50.65100000      49.20100000 
H      47.58900000      49.46500000      47.10400000 
H      48.29400000      51.23800000      45.58200000 
H      47.73700000      51.98800000      47.04200000 
H      49.49700000      51.88700000      46.70500000 
H      49.47800000      49.08300000      45.49600000 
H      50.67400000      49.55800000      46.78300000 
H      49.65500000      48.16600000      46.97700000 
N      47.59500000      48.01600000      49.70600000 
C      47.70400000      46.74700000      50.28700000 
C      46.52600000      45.86300000      49.12700000 
O      45.84600000      46.54700000      48.57100000 
C      46.98400000      46.68100000      51.73700000 
C      48.12200000      47.43800000      52.44600000 
C      45.65700000      47.34400000      51.60400000 
H      46.82200000      48.49500000      49.31900000 
H      48.53900000      46.31800000      50.15700000 
H      47.10600000      45.65900000      51.93400000 
H      47.68000000      47.29200000      53.73300000 
H      48.98400000      47.13100000      52.49400000 
H      47.99100000      48.51900000      52.39300000 
H      45.29900000      47.09900000      53.01700000 
H      45.55800000      48.19600000      51.58500000 
H      44.90600000      46.63100000      51.20900000 
N      44.51300000      41.76900000      49.16500000 
C      43.93000000      40.95300000      49.76800000 
C      43.14200000      39.90900000      48.30100000 
O      42.85400000      40.15600000      47.77900000 
C      42.85400000      40.98300000      50.60400000 
C      41.81700000      41.58300000      50.27000000 
C      40.66500000      41.38700000      51.29100000 
O      39.40300000      42.26100000      51.19800000 
O      40.37500000      40.35900000      51.86100000 
H      43.70300000      42.47900000      48.13500000 
H      44.80600000      40.29600000      49.91900000 
H      42.72200000      40.02600000      51.18600000 
H      43.66200000      41.59900000      51.62800000 
H      41.89900000      42.98000000      50.51000000 
H      41.45800000      41.61300000      49.45000000 
N      40.66000000      41.80400000      45.66600000 
C      40.13100000      43.10500000      46.41200000 
C      41.44300000      43.97400000      46.56900000 
O      42.11100000      43.61400000      47.42500000 
C      39.13800000      42.76500000      47.29200000 
O      38.24400000      41.92600000      47.10500000 
C      38.66500000      44.44400000      47.58500000 
H      41.44600000      41.26700000      46.43300000 
H      39.61300000      43.44800000      45.35700000 
H      39.74500000      42.35600000      48.22600000 
H      37.59600000      42.28800000      46.22600000 
H      37.72300000      43.93400000      48.77300000 
H      39.32200000      44.80600000      48.31900000 
H      38.15000000      44.62300000      47.15700000 
N      41.43600000      44.99700000      46.04700000 
C      42.66200000      46.11100000      46.00800000 
C      42.07900000      47.35300000      46.54900000 
O      41.37200000      47.96600000      45.44800000 
C      43.40100000      46.07900000      44.80000000 
C      44.02700000      44.56700000      44.28100000 
C      44.88300000      44.33200000      43.63600000 
C      45.40900000      42.93800000      43.07500000 
N      46.55700000      42.89000000      41.85200000 
H      40.75800000      45.33300000      45.20200000 
H      43.14900000      45.64900000      46.93900000 
H      43.00200000      46.34500000      44.09800000 
H      44.33700000      46.54900000      45.01300000 
H      44.31200000      44.03500000      45.36400000 
H      43.01700000      43.94800000      44.18100000 
H      44.48000000      45.05800000      42.32600000 
H      45.82400000      44.94100000      43.62800000 
H      45.47800000      42.51100000      43.85700000 
H      44.31500000      42.51000000      42.54500000 
H      46.51900000      42.03900000      41.83500000 
H      46.17100000      43.30800000      41.26500000 
H      47.12000000      43.22000000      42.40000000 
N      42.23800000      47.86300000      47.35400000 
C      41.70200000      49.33000000      47.81400000 
C      42.95900000      49.97300000      48.81200000 
O      43.50700000      49.57200000      49.32300000 
C      40.44900000      49.13200000      49.02500000 
C      40.06500000      50.59700000      49.20900000 
C      39.60300000      47.97800000      48.63700000 
H      42.82300000      47.41600000      48.24500000 
H      41.43400000      49.66300000      47.17100000 
H      40.90800000      48.73800000      49.88800000 
H      38.94400000      50.30700000      49.84900000 
H      40.30500000      51.05600000      49.34800000 
H      39.27200000      50.73200000      48.01200000 
H      38.68900000      47.95100000      49.15600000 
H      39.08600000      48.26200000      47.33800000 
H      40.00000000      46.96500000      48.42700000 
N      43.11300000      51.02500000      48.43200000 
C      44.05400000      52.10500000      48.76600000 
C      43.45400000      52.85100000      50.10600000 
O      42.62400000      53.14800000      50.27600000 
C      44.47800000      53.25700000      47.67500000 
O      44.88500000      52.27200000      46.58800000 
C      45.39700000      54.25600000      48.20800000 
H      42.31500000      51.74100000      47.57200000 
H      44.90600000      51.55100000      48.96500000 
H      43.48000000      53.64300000      47.40900000 
H      45.05100000      52.86600000      45.83200000 
H      45.73500000      54.76600000      47.16000000 
H      45.08000000      54.84400000      48.77700000 
H      46.33700000      53.72000000      48.44300000 
N      44.75400000      53.09700000      51.01500000 
C      44.55200000      53.84600000      52.18500000 
C      45.50600000      55.01500000      52.22800000 
O      46.66700000      54.66100000      51.95200000 
C      44.71000000      52.85600000      53.24700000 
H      45.45300000      52.79100000      50.78800000 
H      43.43400000      54.29000000      52.20400000 
H      44.46300000      53.58500000      54.49200000 
H      43.87600000      52.12900000      53.41000000 
H      45.60400000      52.53400000      53.45200000 
N      45.18500000      55.97300000      52.61300000 
C      45.96700000      57.46100000      52.86500000 
C      46.94300000      57.27100000      53.97300000 
O      47.93100000      57.21300000      54.11300000 
C      45.55000000      58.62700000      52.33400000 
C      46.29900000      59.97000000      52.28600000 
C      47.21600000      59.70500000      50.99800000 
C      46.32900000      60.52100000      53.21500000 
C      48.04100000      60.91000000      51.04500000 
C      47.30400000      61.96600000      53.15200000 
C      48.25700000      61.90000000      51.71700000 
O      49.00400000      62.79200000      51.71400000 
H      44.11000000      56.34500000      52.85600000 
H      46.93400000      57.07900000      51.94100000 
H      44.83600000      58.43800000      51.42000000 
H      44.56200000      58.80800000      53.15400000 
H      47.11500000      59.19600000      50.40300000 
H      45.79400000      60.73900000      54.01200000 
H      48.63700000      60.97400000      50.20200000 
H      47.36300000      62.52900000      53.79100000 
H      49.07700000      63.59500000      52.53600000 
N      45.76500000      57.46600000      55.17100000 
C      46.60100000      57.66700000      56.47700000 
C      45.48900000      56.57300000      57.58000000 
O      45.72500000      57.07200000      58.72300000 
C      46.96700000      58.60700000      56.93100000 
C      48.03200000      58.86700000      58.06700000 
C      48.45600000      60.35200000      58.70000000 
N      49.70700000      59.85800000      59.37500000 
C      49.58000000      61.33600000      60.34000000 
N      49.44800000      62.11200000      60.79600000 
N      50.86200000      60.98200000      61.05100000 
H      45.21400000      57.60200000      55.08100000 
H      47.57300000      56.80100000      56.48800000 
H      47.30100000      59.48800000      56.06200000 
H      46.06800000      59.37000000      57.46200000 
H      47.94900000      58.11400000      58.76900000 
H      49.05300000      58.52900000      57.47600000 
H      48.43000000      60.98900000      57.86500000 
H      47.39300000      60.46800000      59.20200000 
H      49.97300000      59.63700000      59.39000000 
H      48.06400000      62.38900000      59.91000000 
H      49.25100000      62.84500000      61.17300000 
H      51.59700000      60.15100000      61.00300000 
H      51.25600000      61.71600000      61.82400000 
N      44.89000000      55.77600000      56.78800000 
C      43.93300000      55.25600000      58.03000000 
C      44.61100000      53.67700000      58.26900000 
O      45.90900000      53.50300000      58.02500000 
C      42.73800000      54.65300000      56.96000000 
C      41.53100000      55.14500000      58.41000000 
O      41.45700000      55.89400000      58.87000000 
N      40.17100000      54.02000000      58.10200000 
H      44.90800000      55.56700000      56.13700000 
H      43.86300000      55.52900000      58.67600000 
H      42.49300000      55.48800000      56.42200000 
H      42.52200000      53.86200000      56.80100000 
H      39.73400000      54.30900000      58.63700000 
H      40.44200000      53.46600000      57.53400000 
N      43.87000000      52.89300000      58.99100000 
C      44.67000000      51.62900000      59.61400000 
C      44.44800000      51.55900000      60.94900000 
O      45.33400000      52.79800000      61.55600000 
H      43.08500000      53.08000000      59.18500000 
H      43.66500000      50.81700000      59.30000000 
H      45.30200000      51.42200000      59.06600000 
N      44.22100000      50.63700000      61.68600000 
C      44.34500000      50.68100000      63.07400000 
C      44.38800000      49.07500000      63.70300000 
O      44.30600000      48.27400000      62.83600000 
C      43.19200000      51.42500000      63.86900000 
C      42.08700000      50.57500000      63.56900000 
O      41.61000000      49.94200000      63.34700000 
O      40.71000000      52.01600000      63.98100000 
H      43.73900000      50.03900000      61.33300000 
H      45.34400000      51.07000000      63.46600000 
H      43.45500000      51.45000000      65.05200000 
H      43.35500000      52.49600000      63.57900000 
N      46.75600000      53.67400000      66.36500000 
C      46.70700000      53.80100000      64.95700000 
C      48.03900000      53.80300000      64.19500000 
O      48.97600000      54.11400000      64.70900000 
C      46.12000000      55.44500000      64.92400000 
C      45.67000000      55.47800000      66.43300000 
C      46.83900000      54.43800000      67.50600000 
H      45.87000000      53.20600000      64.49000000 
H      46.84500000      55.95800000      64.90100000 
H      45.39200000      55.47600000      64.41700000 
H      45.69400000      56.49700000      66.87700000 
H      44.61500000      55.08800000      66.66600000 
H      47.45600000      55.05000000      67.47600000 
H      46.21800000      54.23600000      68.20500000 
N      47.70100000      53.59400000      63.01800000 
C      49.21600000      53.41400000      62.24700000 
C      49.23800000      55.32300000      61.74300000 
O      48.62100000      55.83700000      61.83100000 
C      48.93900000      52.68100000      60.73600000 
C      49.36600000      51.48100000      60.61000000 
C      50.51100000      51.19400000      61.10400000 
C      48.71100000      50.46900000      61.97600000 
H      47.03400000      53.28200000      62.47800000 
H      49.76000000      53.26100000      62.48700000 
H      47.69900000      52.94900000      60.42400000 
H      49.41400000      53.33400000      59.90600000 
H      48.92600000      50.95800000      59.87600000 
H      51.09000000      50.10500000      60.74300000 
H      51.36100000      51.86700000      59.87800000 
H      51.16800000      51.51900000      61.72100000 
H      48.81900000      49.54700000      61.75600000 
H      48.82500000      50.80900000      62.73600000 
H      47.37100000      50.61600000      61.80900000 
N      51.17300000      41.19600000      58.04000000 
C      50.98200000      42.05100000      56.96300000 
C      49.84600000      43.29800000      57.69100000 
O      49.04300000      43.04800000      58.22800000 
C      50.17300000      41.36700000      55.97500000 
C      50.67200000      39.75800000      56.24400000 
C      50.79800000      40.05700000      57.70000000 
H      51.65800000      42.58900000      56.64400000 
H      48.94600000      41.26600000      56.16700000 
H      50.31000000      41.65900000      54.96400000 
H      50.12300000      39.15600000      55.81600000 
H      51.69700000      39.79800000      55.71400000 
H      49.88200000      39.53900000      58.21200000 
H      51.71500000      39.04300000      58.03300000 
N      50.26900000      44.62000000      56.85500000 
C      49.25700000      45.56600000      57.11100000 
C      47.95000000      45.52900000      56.55000000 
O      48.05400000      45.05500000      55.45500000 
C      50.20200000      46.91200000      56.71300000 
C      50.29200000      48.20300000      57.49200000 
C      51.05400000      49.08200000      56.74300000 
C      48.67000000      49.10100000      57.38500000 
H      50.86700000      44.53500000      56.35200000 
H      49.25900000      45.78100000      58.37900000 
H      51.30400000      46.61500000      56.76800000 
H      50.02100000      47.01800000      55.67000000 
H      50.19000000      48.05600000      58.46700000 
H      51.11000000      50.21600000      57.56600000 
H      52.20800000      48.75500000      57.19100000 
H      51.06200000      49.38100000      56.00900000 
H      48.72300000      49.81300000      57.60400000 
H      48.38200000      48.90300000      56.17300000 
H      47.85700000      48.31400000      57.84300000 
N      47.23500000      45.99700000      57.33500000 
C      45.42800000      45.71900000      56.66500000 
C      44.57800000      46.90600000      57.10200000 
O      45.04800000      47.54500000      58.25800000 
C      45.07300000      44.05200000      56.76300000 
C      44.85800000      44.23600000      58.45800000 
C      44.05700000      44.19900000      56.13700000 
H      47.03700000      46.30700000      58.10300000 
H      45.65900000      45.92400000      55.58400000 
H      45.84400000      43.77700000      56.69200000 
H      44.72000000      42.95400000      58.65900000 
H      45.70500000      44.42600000      59.08600000 
H      44.02500000      44.65800000      58.85000000 
H      43.72600000      42.78600000      56.19300000 
H      42.93100000      44.38500000      56.49600000 
H      43.99700000      44.18100000      55.14800000 
N      43.88900000      47.10900000      56.93100000 
C      42.66300000      48.16700000      56.97900000 
C      42.11200000      47.97200000      58.45100000 
O      42.25900000      49.22600000      59.21100000 
C      41.27900000      48.00600000      55.96300000 
C      40.36600000      49.06100000      56.32200000 
C      40.38100000      50.32100000      55.71800000 
N      40.64200000      50.43000000      54.32900000 
C      40.98000000      51.52000000      53.28500000 
N      40.90000000      52.94400000      54.39800000 
N      41.08500000      51.23100000      52.37000000 
H      43.30500000      46.53300000      55.73400000 
H      43.19100000      49.15800000      56.89900000 
H      41.84300000      48.17800000      55.05500000 
H      41.05000000      47.10400000      56.15000000 
H      39.40200000      48.65800000      55.78400000 
H      40.04000000      49.11800000      57.29600000 
H      39.67100000      51.14300000      56.03800000 
H      41.59900000      50.98700000      56.28700000 
H      40.57800000      49.51500000      53.80500000 
H      40.84000000      52.85200000      54.79300000 
H      41.16200000      53.45600000      53.46000000 
H      41.14500000      50.42700000      51.81600000 
H      41.40000000      52.16000000      51.60600000 
N      41.74000000      46.92200000      58.80100000 
C      40.88900000      47.02100000      60.24600000 
C      41.58200000      45.39800000      60.98900000 
O      40.97700000      44.50500000      60.23600000 
C      39.90900000      47.39700000      60.24300000 
C      38.81500000      47.05500000      61.72400000 
C      37.53500000      47.46900000      61.54800000 
C      37.09800000      49.29200000      61.17200000 
N      35.94800000      49.57600000      61.13300000 
H      41.57500000      46.27900000      58.39300000 
H      41.58100000      47.58600000      60.87500000 
H      39.49800000      48.00500000      59.75800000 
H      39.03300000      46.25800000      59.57800000 
H      39.04300000      46.42200000      62.10100000 
H      39.52600000      48.05200000      62.25700000 
H      36.96800000      46.93700000      60.92500000 
H      37.00700000      47.47100000      62.62500000 
H      37.64500000      49.67400000      61.75900000 
H      37.55000000      49.23100000      60.19700000 
H      35.57900000      50.13200000      60.89200000 
H      35.13400000      48.66000000      60.32600000 
H      35.27300000      49.20200000      62.13300000 
N      42.00100000      45.39200000      61.65700000 
C      42.59500000      44.30500000      62.57400000 
C      42.03700000      44.27000000      63.99400000 
O      42.44500000      45.37000000      64.74600000 
C      43.99600000      43.86800000      62.57400000 
C      44.36200000      42.47600000      63.31300000 
C      45.82400000      42.18300000      63.03100000 
N      46.18900000      42.21000000      62.09900000 
C      46.41900000      40.69600000      60.85600000 
N      45.59800000      39.65800000      61.62900000 
N      47.10000000      40.64700000      59.65200000 
H      42.63100000      46.33500000      62.34100000 
H      41.92900000      43.33600000      62.03100000 
H      44.31500000      43.82600000      61.36300000 
H      44.53800000      44.64800000      62.98800000 
H      44.08800000      42.53100000      64.11200000 
H      43.74300000      41.73000000      62.72600000 
H      46.39000000      42.85700000      63.50900000 
H      45.98200000      41.23000000      63.66800000 
H      46.76800000      42.75300000      61.23800000 
H      45.20400000      39.67100000      62.15600000 
H      45.84700000      38.91700000      60.98000000 
H      47.49000000      41.48300000      59.63300000 
H      46.98700000      40.09900000      59.41500000 
N      40.10700000      39.00500000      63.76400000 
C      39.13400000      39.64400000      62.79600000 
C      39.90400000      40.29000000      61.60000000 
O      40.62600000      41.47000000      62.30800000 
C      37.99900000      40.33300000      63.36100000 
C      37.10000000      39.33600000      64.33700000 
C      35.96800000      40.44700000      64.75900000 
C      35.06100000      39.45100000      65.85600000 
N      34.05300000      40.33900000      66.14700000 
H      40.22400000      39.71700000      64.69000000 
H      38.86700000      38.63100000      62.20000000 
H      38.37900000      41.24400000      63.75300000 
H      37.38200000      40.57300000      62.47700000 
H      36.88100000      38.61700000      63.90700000 
H      37.75300000      39.36300000      65.19500000 
H      36.14600000      41.24400000      65.07700000 
H      35.22200000      40.46800000      63.84400000 
H      34.87300000      38.71900000      65.55600000 
H      35.69200000      39.51000000      66.70500000 
H      33.33000000      39.78400000      67.02900000 
H      34.06500000      41.29000000      66.52100000 
H      33.17600000      40.39800000      65.40400000 
N      40.04400000      40.10400000      60.76100000 
C      40.80300000      40.75400000      59.38300000 
C      39.86400000      40.88700000      58.41800000 
O      39.26800000      40.23500000      57.79300000 
C      42.02800000      40.06500000      59.00300000 
C      41.56700000      38.22700000      58.93900000 
C      42.85300000      40.70100000      58.06100000 
H      39.50200000      39.17000000      60.23900000 
H      41.19200000      41.64400000      59.97200000 
H      42.69800000      39.82900000      60.05100000 
H      42.72000000      37.93800000      58.42700000 
H      41.30200000      37.99400000      59.30400000 
H      41.12900000      38.40200000      57.75400000 
H      43.82200000      40.13500000      57.86500000 
H      42.27100000      40.60400000      57.03000000 
H      42.99600000      41.60000000      58.27900000 
N      39.50100000      42.71600000      58.10800000 
C      38.70200000      42.87000000      57.58000000 
C      39.23000000      44.10000000      56.32100000 
O      39.84700000      44.73600000      56.88300000 
C      37.51300000      43.23300000      58.26300000 
C      36.77800000      42.55300000      58.96500000 
C      35.35600000      42.42800000      60.03800000 
O      35.04800000      44.04300000      59.55900000 
O      35.18500000      42.19600000      60.36500000 
H      40.10000000      43.01800000      58.73900000 
H      38.26300000      41.99900000      56.56000000 
H      37.66300000      44.16700000      58.69300000 
H      36.58400000      43.94200000      57.31400000 
H      36.21000000      41.43100000      58.09200000 
H      37.34400000      41.82500000      59.49500000 
N      38.65700000      44.02900000      55.43700000 
C      39.21100000      45.17500000      54.11800000 
C      37.49100000      45.72900000      53.59600000 
O      37.17600000      44.55100000      52.93000000 
C      39.95200000      44.95000000      53.52000000 
C      40.69900000      46.11700000      52.76800000 
O      40.08900000      47.47700000      52.88400000 
N      41.91400000      45.55100000      51.92100000 
H      38.13300000      43.40700000      54.85500000 
H      39.17300000      46.12300000      55.01100000 
H      40.98800000      44.49600000      54.05600000 
H      39.88600000      44.16200000      52.71600000 
H      42.23000000      46.82200000      51.38800000 
H      42.10100000      45.22700000      51.84500000 
N      37.10700000      46.30200000      53.47700000 
C      35.77400000      46.97300000      53.11600000 
C      36.06300000      48.20800000      52.47500000 
O      35.87500000      48.62800000      50.93700000 
C      34.81500000      47.18600000      53.89600000 
C      33.32300000      47.48100000      53.46500000 
O      33.10100000      46.87800000      52.50700000 
O      32.61000000      48.17700000      54.22600000 
O      36.73100000      49.51000000      53.12700000 
H      37.68400000      47.52400000      54.27200000 
H      35.66200000      46.44900000      52.35800000 
H      34.72800000      46.19900000      54.65000000 
H      35.03100000      48.01400000      54.87900000 
H      45.68298204      37.19236880      52.55355351 
H      48.55567095      40.14322388      52.11296160 
H      51.92784851      54.26919262      50.63563794 
H      46.55015109      44.86594511      49.05421082 
H      44.82233467      42.39689010      49.73074383 
H      43.16891995      38.90972165      48.32779742 
H      39.96655351      41.26102488      45.48077047 
H      44.47318925      48.92597599      64.68815716 
H      46.30707329      52.93538635      66.61582799 
H      50.06153666      55.72501088      61.34278177 
H      52.04744164      41.16972592      58.25133264 
H      41.45156200      43.51240349      64.28263450 
H      39.78780302      38.20568163      64.02706544 
