 124 
 
N               231.6506677990       67.6523313778      118.0788371950
C               232.1964054882       68.9902062159      118.0813118682
C               233.3968935414       69.1993162134      119.0111779280
O               234.0397343433       70.2386737029      118.9511587673
C               231.1043949018       70.0042807298      118.4344494133
C               229.9645815548       70.0268593081      117.4104364136
C               228.8358501956       70.9444688446      117.8733791631
C               230.4685524967       70.4833686009      116.0498421436
H               230.8535804717       67.4821689615      118.6839771514
H               232.5870976485       69.1854549032      117.0756763171
H               230.7103983494       69.7543705622      119.4211795568
H               231.5653549108       70.9910679604      118.4995803645
H               229.5610712165       69.0130051797      117.3206542216
H               228.0161592807       70.9117832411      117.1596525674
H               228.4632797978       70.6437248636      118.8501788227
H               229.1717433107       71.9772148745      117.9425662503
H               229.6439577087       70.5321293660      115.3478450051
H               230.9060683561       71.4745344502      116.1349096524
H               231.2153176208       69.7952511832      115.6624370685
N               223.1262651509       75.2596277624      114.2689731218
C               223.3133143614       74.0043597135      113.5876141706
C               221.9405720055       73.4294112829      113.2427461580
O               220.9388505461       73.7587683908      113.8589516420
C               224.0401433920       73.0108277302      114.5215136088
C               225.4792455901       73.3938352843      114.7302074552
C               225.9331393310       73.9531819479      115.9167767598
C               226.4005267421       73.1606447381      113.7200748901
C               227.2778291842       74.2031300654      116.1235739713
C               227.7457747427       73.3858104435      113.9173458080
C               228.1988194214       73.8829599675      115.1326118704
O               229.5274268122       74.0770395184      115.3682530320
H               222.4090022687       75.2598951313      114.9895119458
H               223.9036435659       74.1837413930      112.6842287753
H               223.5122591178       72.9971037294      115.4761091318
H               223.9906048417       72.0108855800      114.0861204998
H               225.2283479937       74.1853051031      116.6987546876
H               226.0655404819       72.7890320304      112.7647631283
H               227.6371893505       74.6145894156      117.0553121287
H               228.4466094938       73.1494702593      113.1330758539
H               230.0345122375       73.6346898989      114.6737994407
N               222.0902003082       65.9988016509      116.4784267278
C               222.8465469845       66.8692123923      115.5887771223
C               222.8354642517       66.2555807279      114.1866528787
O               223.2652464074       65.1269968648      113.9732261806
C               224.2737077005       66.9810835216      116.1230856039
C               225.2119062352       67.8230597322      115.2514787317
C               224.7716550104       69.2802594041      115.1465134463
C               226.6235576774       67.7605836676      115.8372458633
H               222.6477838497       65.4002265993      117.0864935046
H               222.3494119985       67.8428760647      115.5519977943
H               224.2320458123       67.3963709782      117.1304445497
H               224.6749018341       65.9673823552      116.1921799213
H               225.2144535819       67.3915874634      114.2441472427
H               225.5540325983       69.8562850724      114.6587632330
H               223.8609997023       69.3787847432      114.5611202264
H               224.6110772193       69.6985676884      116.1361745931
H               227.3400969009       68.2330481547      115.1695167573
H               226.6509687534       68.2827790023      116.7890266915
H               226.9350749896       66.7291603106      116.0004977114
N               222.2713941831       67.0050678558      113.2318193149
C               222.2583034027       66.5255524723      111.8658678734
C               223.6654349333       66.7138701967      111.2868166873
O               224.3901066633       67.6406176286      111.6129353788
C               221.2008273248       67.2646018978      111.0566994449
H               222.0902476996       67.9978444465      113.3601081548
H               222.0368335444       65.4534319897      111.9067692154
H               221.1709350632       66.9000574496      110.0347155519
H               220.2268984492       67.1186239708      111.5186454090
H               221.4237120278       68.3281424527      111.0466552135
N               224.0669353709       65.7469517856      110.4440280400
C               225.3737439392       65.8104306726      109.8249853620
C               226.4605227891       66.2168007451      110.8183728699
O               227.3705095660       66.9718506791      110.4921247327
H               223.4289199330       65.0236275777      110.1492135386
H               225.6227152222       64.8321458150      109.4115814058
H               225.3925812360       66.5523717239      109.0183955392
N               226.4186516931       65.6676130063      112.0361439412
C               227.4772597531       65.9577881291      112.9836625737
C               228.1912609636       67.2691090402      112.6242394073
O               229.4053914443       67.3088023753      112.5053700741
H               225.6688276245       65.0561773260      112.3235949020
H               227.0554765110       66.0278368988      113.9838468421
H               228.2295795854       65.1612533665      112.9612829320
N               227.4092427549       68.3759570471      112.5690258763
C               227.8475716255       69.4579725375      111.6896865157
C               229.0140682185       70.1513414224      112.3846755333
O               228.8841990923       70.6883390382      113.4711443542
C               226.6760968365       70.3868864490      111.4274450890
H               226.4076438843       68.2265368162      112.5438844134
H               228.2008682389       69.0195508563      110.7477295262
H               226.9871212178       71.2176918299      110.8000156249
H               225.8851789991       69.8330837857      110.9270391134
H               226.3064515118       70.7644373604      112.3754931777
N               230.1798612658       70.1295290788      111.7150669175
C               231.4444778111       70.3990880521      112.3614958247
C               231.7476154267       71.8839165580      112.5296467256
O               232.5211282023       72.2610118628      113.4015172920
C               232.5768114931       69.7352151988      111.5481463569
O               232.3505552897       70.0940207423      110.2000647931
C               232.5923504232       68.2233785068      111.7633956970
H               230.2542267358       69.6617654889      110.8227653389
H               231.4292931228       69.9705433172      113.3704791568
H               233.5352132994       70.1549230522      111.8874434569
H               233.0061547080       69.6580570591      109.6441443581
H               233.3124740110       67.7519775909      111.0985887184
H               232.8724989673       67.9952748000      112.7879690846
H               231.6106861326       67.7924461785      111.5827088992
N               231.1570125352       72.7180663717      111.6790077866
C               231.2670346858       74.1570953100      111.7810822238
C               229.8600971141       74.7477525589      111.6525522115
O               229.0176154888       74.1612426517      110.9723989358
C               232.1692669153       74.7297263567      110.6780660974
O               233.4940400494       74.3775702524      110.9811810959
H               230.4983003542       72.3741340912      110.9923963741
H               231.7253209350       74.3824186397      112.7478975805
H               231.8517200872       74.3209160827      109.7099279583
H               232.0377686538       75.8195678415      110.6528288152
H               234.0826078051       74.7108850132      110.2929146838
H               231.3748818749       67.4419045138      117.2483778889
H               233.6530333070       68.4872044605      119.6648516017
H               223.8939257182       75.4995220179      114.6728889541
H               221.8480827631       72.7682507065      112.4982245449
H               221.5734665057       66.4985829118      117.0199106782
H               229.6321788781       75.6025674178      112.1187547798
