385
Properties=species:S:1:pos:R:3 pbc="F F F"
N      24.89300000      10.23900000      25.96500000 
C      23.55900000      10.35100000      26.58800000 
C      22.93000000       8.95500000      26.54500000 
O      23.81100000       7.96200000      26.43100000 
C      22.74700000      11.38000000      25.78900000 
C      22.06400000      12.45300000      26.65400000 
C      22.94100000      13.40400000      27.36300000 
C      20.98200000      13.27100000      25.86500000 
H      25.06200000       9.41200000      25.48900000 
H      23.62100000      10.62800000      27.57400000 
H      23.44900000      11.98500000      25.21000000 
H      22.05600000      10.95600000      25.13800000 
H      21.43700000      11.91500000      27.45200000 
H      22.40900000      14.08100000      27.97100000 
H      23.68500000      12.89200000      27.96300000 
H      23.50100000      14.01400000      26.58900000 
H      20.50000000      13.91300000      26.40300000 
H      21.54600000      13.74500000      25.04100000 
H      20.28400000      12.54900000      25.36200000 
N      21.64100000       8.69200000      26.62600000 
C      21.28300000       7.26100000      26.63600000 
C      21.83100000       6.43000000      25.51300000 
O      22.09500000       5.28100000      25.70000000 
C      19.76400000       7.32700000      26.68800000 
C      19.41100000       8.64500000      27.21700000 
C      20.60700000       9.60400000      26.92100000 
H      21.67800000       6.79200000      27.63200000 
H      19.39400000       7.19600000      25.63700000 
H      19.34200000       6.51200000      27.27000000 
H      18.45200000       9.06200000      26.71000000 
H      19.24500000       8.60500000      28.21100000 
H      20.38900000      10.19800000      26.06500000 
H      20.81300000      10.19500000      27.71100000 
N      21.75700000       7.03900000      24.35400000 
C      22.12000000       6.33100000      23.16600000 
C      21.61800000       7.10400000      21.94800000 
O      20.65800000       7.91800000      22.11300000 
H      21.44800000       7.95800000      24.25400000 
H      23.19000000       6.26600000      23.04900000 
H      21.71500000       5.32700000      23.14300000 
N      22.13400000       6.95600000      20.82800000 
C      21.86300000       7.71500000      19.65400000 
C      22.53700000       7.14800000      18.47900000 
O      23.34400000       6.28500000      18.53700000 
C      22.26400000       9.22100000      19.93100000 
C      23.43500000       9.40100000      20.82300000 
C      24.80100000       8.94700000      20.17600000 
C      23.59100000      10.85300000      21.21900000 
H      22.92000000       6.26400000      20.69300000 
H      20.80500000       7.74400000      19.48100000 
H      22.46400000       9.69700000      18.98700000 
H      21.43500000       9.71900000      20.40500000 
H      23.33200000       8.82400000      21.75900000 
H      25.60200000       9.05800000      20.84200000 
H      24.71400000       7.88100000      19.91700000 
H      24.95600000       9.45900000      19.30100000 
H      24.44500000      11.02500000      21.92000000 
H      23.76500000      11.48000000      20.36100000 
H      22.71500000      11.19600000      21.71600000 
N      22.18100000       7.71400000      17.29200000 
C      22.75300000       7.21300000      16.06200000 
C      24.26300000       7.60700000      16.04500000 
O      24.60100000       8.75200000      16.26700000 
C      22.02000000       7.82500000      14.87800000 
H      21.54300000       8.42100000      17.25300000 
H      22.70900000       6.09500000      16.03100000 
H      22.50600000       7.52600000      13.95700000 
H      21.00500000       7.46200000      14.90200000 
H      22.04000000       8.85700000      14.94200000 
N      21.96400000      22.95000000      19.22100000 
C      21.26600000      22.32200000      18.11800000 
C      21.12800000      20.85200000      18.29600000 
O      20.19800000      20.24200000      17.97400000 
C      21.92900000      22.65900000      16.83300000 
C      21.86400000      24.12800000      16.38900000 
O      20.90300000      24.80100000      16.94900000 
O      22.53700000      24.54900000      15.51800000 
H      22.77600000      23.46100000      19.03400000 
H      20.27400000      22.68400000      18.08300000 
H      23.01900000      22.47300000      16.91300000 
H      21.60200000      22.10300000      16.05300000 
N      22.36300000      20.24200000      18.70300000 
C      22.28000000      18.79500000      18.92700000 
C      21.34100000      18.45500000      19.95700000 
O      20.60600000      17.43700000      19.95800000 
C      23.69100000      18.20900000      19.12200000 
C      24.00000000      17.10500000      18.06800000 
C      25.43700000      16.65700000      18.38900000 
C      23.08800000      15.95300000      18.13600000 
H      23.13800000      20.74000000      18.90100000 
H      21.82800000      18.35800000      17.96400000 
H      24.37800000      19.00700000      19.07900000 
H      23.72300000      17.81700000      20.10000000 
H      24.00600000      17.58000000      17.13100000 
H      25.72000000      15.90500000      17.67600000 
H      26.14100000      17.41800000      18.37900000 
H      25.47100000      16.15800000      19.36900000 
H      23.34300000      15.23000000      17.46900000 
H      23.02600000      15.53200000      19.15800000 
H      22.03200000      16.27400000      17.90300000 
N      21.30300000      19.23400000      21.10500000 
C      20.43600000      18.98700000      22.13200000 
C      19.03600000      19.15600000      21.70800000 
O      18.14200000      18.23700000      22.09500000 
C      20.82100000      19.95100000      23.30200000 
C      19.96400000      19.91300000      24.54800000 
C      20.76700000      20.46600000      25.68600000 
C      18.68700000      20.76400000      24.35300000 
H      22.00100000      20.04100000      21.10800000 
H      20.58900000      17.98300000      22.53200000 
H      21.83300000      19.77900000      23.52900000 
H      20.81400000      20.99400000      22.85300000 
H      19.68400000      18.91900000      24.69500000 
H      20.18300000      20.48500000      26.59500000 
H      21.63100000      19.80300000      25.87900000 
H      21.13400000      21.41600000      25.48600000 
H      18.13200000      20.77200000      25.29100000 
H      18.97700000      21.81100000      24.14000000 
H      18.04600000      20.40000000      23.59400000 
N      18.77900000      20.12700000      20.95400000 
C      17.36500000      20.28900000      20.43600000 
C      16.98300000      19.14300000      19.55100000 
O      15.88900000      18.71500000      19.59200000 
C      17.28800000      21.67200000      19.69400000 
H      19.41500000      20.84700000      20.72900000 
H      16.68500000      20.32200000      21.26000000 
H      16.35600000      21.76500000      19.27700000 
H      17.53000000      22.43700000      20.32600000 
H      18.02200000      21.65200000      18.88400000 
N      17.96300000      18.81700000      18.67800000 
C      17.64700000      17.64400000      17.80900000 
C      17.35700000      16.47000000      18.57500000 
O      16.37000000      15.67800000      18.33900000 
C      18.94300000      17.42100000      16.96200000 
C      18.97100000      16.05100000      16.30100000 
C      17.80800000      15.83100000      15.38300000 
C      17.72500000      14.26100000      15.12800000 
N      16.52700000      14.02600000      14.21900000 
H      18.75400000      19.20500000      18.59200000 
H      16.83200000      17.84500000      17.19900000 
H      19.00700000      18.21800000      16.22000000 
H      19.78600000      17.49900000      17.62500000 
H      19.90100000      15.95000000      15.76000000 
H      18.98500000      15.25200000      17.12000000 
H      16.85300000      16.10000000      15.85700000 
H      17.91800000      16.34100000      14.44900000 
H      18.59400000      13.92500000      14.61000000 
H      17.54800000      13.76400000      16.03100000 
H      16.18600000      13.03700000      14.50600000 
H      15.80900000      14.62500000      14.35300000 
H      16.79700000      14.01000000      13.24900000 
N      18.15900000      16.13900000      19.67000000 
C      17.92500000      15.02500000      20.43600000 
C      16.56800000      15.09000000      21.02900000 
O      15.83900000      14.06700000      21.00200000 
C      18.99200000      15.12800000      21.61900000 
C      18.51400000      14.30500000      22.85600000 
C      17.97700000      14.67600000      23.93400000 
C      18.59600000      12.77400000      22.87400000 
N      17.66500000      13.70200000      24.68700000 
C      17.99800000      12.51300000      24.14000000 
C      19.04000000      11.84900000      22.07200000 
C      17.88100000      11.17800000      24.60700000 
C      18.95100000      10.47700000      22.53300000 
C      18.39300000      10.18400000      23.74300000 
H      18.97600000      16.73900000      19.78200000 
H      18.04700000      14.10300000      19.93500000 
H      19.93400000      14.77400000      21.25700000 
H      19.05900000      16.10200000      21.93300000 
H      17.76400000      15.75900000      24.21600000 
H      17.20700000      13.77000000      25.70300000 
H      19.48600000      12.05100000      21.12400000 
H      17.46400000      10.94500000      25.51400000 
H      19.32500000       9.70400000      21.87700000 
H      18.32600000       9.17200000      24.04800000 
N      16.12600000      16.15900000      21.53600000 
C      14.92000000      16.20900000      22.22300000 
C      13.76200000      16.10300000      21.22600000 
O      12.79400000      15.47700000      21.46800000 
C      14.80200000      17.59800000      22.97000000 
C      13.40300000      17.76600000      23.57200000 
N      13.00400000      16.85500000      24.48700000 
C      12.35700000      18.55100000      23.32600000 
C      11.64900000      17.14500000      24.86400000 
N      11.32400000      18.19100000      24.05500000 
H      16.82300000      17.05700000      21.63000000 
H      14.77500000      15.43800000      22.93000000 
H      15.53800000      17.62800000      23.71900000 
H      14.92800000      18.43600000      22.25300000 
H      13.43400000      16.13500000      24.90600000 
H      12.35600000      19.40600000      22.57100000 
H      11.07600000      16.65600000      25.48400000 
N      13.91200000      16.77100000      20.09300000 
C      12.79700000      16.79800000      19.13900000 
C      12.64900000      15.37200000      18.58000000 
O      11.43700000      14.97600000      18.29800000 
C      13.32500000      17.69900000      17.95000000 
C      12.19100000      17.73300000      16.89300000 
C      10.86200000      18.42700000      17.26300000 
O       9.88800000      18.09200000      16.68900000 
N      10.93800000      19.31500000      18.16400000 
H      14.72500000      17.33600000      19.89200000 
H      11.94100000      17.07700000      19.52000000 
H      13.49700000      18.62600000      18.35200000 
H      14.20900000      17.23300000      17.48400000 
H      12.63200000      18.36800000      16.01600000 
H      11.98800000      16.83800000      16.44700000 
H      11.77000000      19.62800000      18.66000000 
H      10.14800000      19.78400000      18.43500000 
N      13.68100000      14.62300000      18.46500000 
C      13.60500000      13.22900000      17.80500000 
C      13.30000000      12.28100000      18.95400000 
O      12.31800000      11.66500000      18.97000000 
C      14.94000000      13.02100000      17.12900000 
C      15.00400000      11.74100000      16.38300000 
O      15.74600000      11.73100000      15.35700000 
O      14.31600000      10.81600000      16.76800000 
H      14.59500000      14.99800000      18.62700000 
H      12.83100000      13.24700000      17.19300000 
H      15.09900000      13.88300000      16.47100000 
H      15.75500000      13.05500000      17.83700000 
N      14.19100000      12.11700000      19.92200000 
C      14.12200000      11.25000000      20.96100000 
C      13.30800000      11.93000000      22.12700000 
O      13.81300000      12.30200000      23.16200000 
C      15.42600000      10.82300000      21.52800000 
C      16.22000000      10.05400000      20.54000000 
C      16.95800000      10.79600000      19.54300000 
C      16.30100000       8.59500000      20.58800000 
C      17.76500000       9.97600000      18.57700000 
C      17.09700000       7.89000000      19.64800000 
C      17.80700000       8.66600000      18.67000000 
O      18.62100000       7.95500000      17.76500000 
H      14.99800000      12.89400000      19.99300000 
H      13.52900000      10.37800000      20.64600000 
H      15.99900000      11.62900000      21.85600000 
H      15.28900000      10.18200000      22.36200000 
H      16.93400000      11.74900000      19.49700000 
H      15.77800000       8.13300000      21.30200000 
H      18.28900000      10.52800000      17.86400000 
H      17.14900000       6.91600000      19.70600000 
H      18.61600000       7.08000000      17.86900000 
N      12.01800000      12.01500000      21.89000000 
C      11.15900000      12.64400000      22.87100000 
C      11.18900000      11.95200000      24.15800000 
O      10.95500000      12.55500000      25.24200000 
H      11.62200000      11.74000000      20.95800000 
H      11.48600000      13.65600000      23.00800000 
H      10.15500000      12.66300000      22.49500000 
N      11.42300000      10.61300000      24.13600000 
C      11.37500000       9.78700000      25.33200000 
C      11.90500000       8.44500000      24.96500000 
O      12.95000000       8.34100000      24.23700000 
C      10.03500000       9.81500000      26.03100000 
C      10.17500000       9.56000000      27.47100000 
C       8.91400000       9.31100000      28.16700000 
O       8.03100000       8.65300000      27.67500000 
N       8.70500000       9.90200000      29.37900000 
H      11.73100000      10.25400000      23.25900000 
H      12.13900000      10.21900000      26.01300000 
H       9.60500000      10.78200000      25.86300000 
H       9.36800000       9.04800000      25.54700000 
H      10.82600000       8.67900000      27.70200000 
H      10.72400000      10.41100000      27.95800000 
H       9.45300000      10.48900000      29.75200000 
H       7.88400000       9.76900000      29.87200000 
N      14.05500000       6.20300000      25.80900000 
C      15.20700000       5.99200000      26.62300000 
C      15.10900000       6.91500000      27.86900000 
O      14.48400000       7.91300000      27.83600000 
C      16.47600000       6.35800000      25.90300000 
C      16.85000000       5.23700000      24.94700000 
O      16.13000000       4.89200000      23.96600000 
N      18.09400000       4.59200000      25.23200000 
H      14.09500000       6.80200000      25.06300000 
H      15.21400000       4.97700000      26.96700000 
H      16.35300000       7.21300000      25.31200000 
H      17.27100000       6.47600000      26.57500000 
H      18.31900000       3.87400000      24.59900000 
H      18.57100000       4.83300000      25.91200000 
N      13.05400000      13.41600000      34.70800000 
C      13.14900000      13.17300000      33.28800000 
C      13.86800000      14.36100000      32.64500000 
O      13.23600000      15.36200000      32.28600000 
C      11.79600000      12.98900000      32.67900000 
C      11.03000000      11.83300000      33.21400000 
C      11.68000000      10.46200000      32.85100000 
N      10.83200000       9.54300000      32.28600000 
C       9.73500000       8.98100000      32.78200000 
N       8.91900000       8.24700000      32.19400000 
N       9.48100000       9.30400000      34.16300000 
H      12.20000000      13.81800000      35.06600000 
H      13.73800000      12.26900000      33.15900000 
H      11.20500000      13.89100000      32.85400000 
H      11.90000000      12.88700000      31.59200000 
H      10.87800000      11.89800000      34.26100000 
H      10.01800000      11.79300000      32.76400000 
H      12.48900000      10.61000000      32.15400000 
H      12.15500000      10.02700000      33.73100000 
H      11.00200000       9.18200000      31.31800000 
H       9.02400000       8.09200000      31.18700000 
H       8.08000000       7.79200000      32.62100000 
H      10.08600000       9.79300000      34.64000000 
H       8.64500000       8.94800000      34.55900000 
N      15.14600000      14.16900000      32.46000000 
C      15.96300000      15.29400000      32.00400000 
C      15.95500000      15.26900000      30.45300000 
O      16.99500000      15.01400000      29.85000000 
C      17.43300000      15.16700000      32.61200000 
C      18.13600000      16.43500000      32.52000000 
C      17.92900000      17.41300000      33.47900000 
C      19.02200000      16.67500000      31.62900000 
C      18.58300000      18.58400000      33.49100000 
C      19.79100000      17.84800000      31.51500000 
C      19.51300000      18.82900000      32.55000000 
H      15.62100000      13.40700000      32.85700000 
H      15.54500000      16.18900000      32.35300000 
H      17.28000000      14.83900000      33.61300000 
H      17.92100000      14.40800000      32.03900000 
H      17.19700000      17.22800000      34.22600000 
H      19.26100000      15.95300000      30.81500000 
H      18.42200000      19.32600000      34.20500000 
H      20.53500000      18.05400000      30.79400000 
H      20.09200000      19.71400000      32.50700000 
N      14.81900000      15.71300000      30.01400000 
C      14.68800000      15.97400000      28.61200000 
C      14.72000000      17.47200000      28.38500000 
O      15.73900000      18.02700000      28.51500000 
C      13.42400000      15.28200000      28.00400000 
O      12.29300000      15.73700000      28.86600000 
C      13.60300000      13.73000000      28.06000000 
H      14.05500000      15.87200000      30.55500000 
H      15.52900000      15.57000000      28.02300000 
H      13.27000000      15.59400000      27.01800000 
H      11.56400000      15.22200000      28.71200000 
H      12.67500000      13.32500000      27.65400000 
H      14.37100000      13.47800000      27.53000000 
H      13.67800000      13.45800000      29.07200000 
N      13.54800000      18.12200000      28.21200000 
C      13.46800000      19.52100000      28.06500000 
C      12.69800000      20.19200000      29.17600000 
O      12.65200000      21.42800000      29.22000000 
C      12.81100000      19.88400000      26.70200000 
H      12.73000000      17.57100000      28.13700000 
H      14.48700000      19.91700000      28.10700000 
H      12.79200000      20.93600000      26.63100000 
H      13.41300000      19.44400000      25.91100000 
H      11.82100000      19.49800000      26.70300000 
N      12.08800000      19.41100000      30.08800000 
C      11.17900000      19.96600000      31.10300000 
C      12.00700000      20.80600000      32.00200000 
O      11.68700000      22.09200000      32.17800000 
C      10.54400000      18.84500000      31.83600000 
C       9.39700000      19.16500000      32.68700000 
O       8.81100000      18.19600000      33.16400000 
O       9.20500000      20.33300000      32.95800000 
H      12.19700000      18.44200000      30.00600000 
H      10.42700000      20.59900000      30.59800000 
H      10.17300000      18.12500000      31.01700000 
H      11.28400000      18.25800000      32.31700000 
N      13.05500000      20.31500000      32.59900000 
C      13.98000000      21.04100000      33.38200000 
C      15.29400000      21.11600000      32.55700000 
O      15.69100000      20.11400000      31.92000000 
C      14.35100000      20.28000000      34.65400000 
C      13.11900000      20.22800000      35.58500000 
N      13.26700000      20.85400000      36.83400000 
C      11.84800000      19.70600000      35.46100000 
C      12.07200000      20.61700000      37.44600000 
N      11.17900000      20.03700000      36.71000000 
H      13.26300000      19.31700000      32.30300000 
H      13.58500000      22.01500000      33.58500000 
H      14.59300000      19.25500000      34.42000000 
H      15.15100000      20.72900000      35.13800000 
H      14.05100000      21.35200000      37.20600000 
H      11.43000000      19.24800000      34.71600000 
H      11.82700000      21.01700000      38.42500000 
H      25.00214602      10.90296822      25.36730999 
H      24.95815843       6.91494298      15.85054733 
H      21.41581052      23.53570846      19.62896310 
H      11.44282754       7.61931288      25.28847705 
H      13.79778435       5.42155223      25.44406235 
H      15.58045869       6.66504480      28.71472401 
H      13.14964815      12.63943511      35.15274533 
H      15.82266851      21.96453671      32.53475001 
