62
Properties=species:S:1:pos:R:3 pbc="F F F"
N      29.30300000      28.28900000      18.65700000 
C      28.95600000      29.07400000      17.83100000 
C      27.37800000      29.74800000      17.76400000 
O      27.09900000      30.80300000      17.32200000 
C      29.29600000      29.40600000      16.28000000 
O      28.95200000      28.48700000      15.49000000 
H      29.24100000      27.25200000      18.01300000 
H      29.47300000      30.31900000      18.25300000 
H      29.40800000      30.25300000      15.86700000 
H      30.73600000      29.07300000      16.42700000 
H      28.37900000      27.57300000      15.92100000 
N      26.61500000      28.79900000      18.20600000 
C      25.14600000      29.11400000      18.16800000 
C      24.71000000      30.06100000      19.14000000 
O      25.28500000      30.17900000      20.28300000 
C      24.30600000      27.89800000      18.32100000 
C      24.14900000      27.14600000      19.82800000 
C      22.95600000      27.76100000      17.75800000 
H      26.91700000      27.97800000      18.72200000 
H      24.96000000      29.40700000      17.14600000 
H      24.89300000      26.95800000      17.70200000 
H      23.90900000      26.26100000      19.78500000 
H      25.35500000      27.20900000      20.26100000 
H      23.74100000      27.80300000      20.34700000 
H      22.44200000      26.96800000      17.82700000 
H      22.31700000      28.63300000      18.37400000 
H      22.92400000      28.16500000      16.74600000 
N      23.90600000      30.96200000      18.80400000 
C      23.32700000      32.10500000      19.93700000 
C      22.71100000      31.30800000      21.07400000 
O      21.84400000      30.25100000      20.76500000 
C      22.37100000      32.89900000      19.10800000 
C      22.74900000      32.71700000      17.57900000 
C      23.30900000      31.41000000      17.45700000 
H      24.15300000      32.52000000      20.23400000 
H      21.34400000      32.47800000      19.14200000 
H      22.36300000      33.93800000      19.52100000 
H      22.09800000      33.11300000      16.95900000 
H      23.79400000      33.58400000      17.51400000 
H      22.52000000      30.77100000      17.21400000 
H      24.12100000      31.30000000      16.76700000 
N      22.84100000      31.76100000      22.12400000 
C      22.15100000      31.16900000      23.28400000 
C      21.48700000      32.43300000      24.05200000 
O      21.52500000      33.25300000      24.04300000 
C      23.49900000      30.79600000      24.39500000 
C      24.38800000      29.73900000      24.04200000 
C      25.51700000      29.25400000      25.07800000 
C      23.56400000      28.32300000      23.49200000 
H      23.43700000      32.55200000      22.36200000 
H      21.73700000      30.41400000      23.17400000 
H      23.91600000      31.66000000      24.68000000 
H      22.84900000      30.44700000      25.43300000 
H      24.80700000      30.02100000      23.08200000 
H      25.90500000      28.79300000      24.79100000 
H      25.90100000      30.32800000      25.27900000 
H      24.86200000      29.12300000      25.95500000 
H      24.33300000      27.62300000      23.38100000 
H      22.98600000      28.01400000      24.48500000 
H      22.93000000      28.47700000      22.80000000 
H      30.13350721      28.49431094      18.93647308 
H      20.81321531      32.28099597      24.77512445 
