385
Properties=species:S:1:pos:R:3 pbc="F F F"
N      25.07200000      10.04200000      25.82800000 
C      23.78900000      10.15600000      26.50900000 
C      23.20500000       8.71500000      26.51300000 
O      24.00400000       7.77500000      26.47600000 
C      22.97300000      11.30300000      25.88500000 
C      22.30700000      12.32800000      26.84500000 
C      23.33900000      13.21700000      27.57600000 
C      21.32600000      13.17600000      26.04800000 
H      25.15700000       9.39600000      25.10000000 
H      23.97800000      10.37700000      27.56000000 
H      23.67200000      11.87600000      25.26400000 
H      22.23600000      10.92700000      25.19200000 
H      21.76200000      11.79200000      27.61300000 
H      22.79500000      13.88100000      28.25500000 
H      24.03900000      12.64600000      28.14100000 
H      23.87800000      13.82700000      26.87600000 
H      20.84600000      13.93000000      26.69100000 
H      21.83900000      13.70700000      25.23900000 
H      20.54400000      12.56400000      25.60800000 
N      21.90200000       8.41900000      26.58900000 
C      21.51200000       7.02700000      26.77200000 
C      21.90800000       6.13800000      25.61300000 
O      22.21100000       4.92600000      25.82400000 
C      19.96800000       7.04400000      26.88000000 
C      19.56600000       8.48200000      27.13900000 
C      20.75400000       9.36900000      26.69200000 
H      21.97200000       6.62100000      27.65000000 
H      19.53400000       6.69100000      25.96000000 
H      19.63300000       6.38400000      27.67400000 
H      18.67300000       8.75900000      26.60500000 
H      19.36400000       8.64800000      28.18600000 
H      20.55700000       9.81600000      25.74900000 
H      20.94600000      10.12000000      27.41800000 
N      21.78700000       6.62300000      24.39800000 
C      21.96300000       5.85400000      23.18800000 
C      21.50200000       6.70100000      22.02700000 
O      20.46300000       7.40000000      22.12200000 
H      21.52000000       7.58500000      24.28300000 
H      22.98900000       5.54900000      23.04200000 
H      21.35900000       4.95800000      23.21800000 
N      22.23700000       6.70000000      20.90800000 
C      21.95000000       7.58000000      19.78700000 
C      22.63400000       7.02200000      18.56200000 
O      23.56300000       6.18700000      18.62100000 
C      22.34900000       9.07000000      20.07000000 
C      23.53200000       9.32900000      21.03500000 
C      24.86500000       8.75100000      20.56000000 
C      23.64900000      10.86400000      21.23300000 
H      23.05300000       6.13700000      20.85900000 
H      20.91500000       7.55900000      19.61200000 
H      22.54700000       9.55500000      19.12700000 
H      21.47300000       9.54800000      20.48900000 
H      23.28400000       8.89800000      22.00600000 
H      25.66100000       9.06800000      21.21900000 
H      24.85300000       7.67400000      20.54400000 
H      25.10300000       9.10500000      19.54700000 
H      24.41600000      11.08500000      21.97000000 
H      23.93900000      11.34600000      20.30100000 
H      22.72400000      11.29200000      21.56500000 
N      22.17700000       7.48300000      17.37600000 
C      22.71900000       7.06200000      16.10700000 
C      24.19700000       7.46100000      15.99400000 
O      24.59700000       8.55800000      16.35400000 
C      21.91100000       7.73600000      15.00900000 
H      21.43800000       8.13200000      17.38100000 
H      22.63400000       5.98900000      16.01900000 
H      22.29000000       7.45800000      14.01400000 
H      20.88100000       7.44200000      15.06300000 
H      21.97500000       8.81700000      15.09000000 
N      21.90200000      23.14400000      18.96000000 
C      21.25500000      22.48300000      17.87000000 
C      21.18500000      20.95200000      18.11300000 
O      20.14300000      20.35100000      17.82800000 
C      21.89000000      22.77000000      16.51900000 
C      21.62200000      24.16600000      15.97100000 
O      20.65400000      24.83400000      16.46900000 
O      22.36200000      24.53300000      15.00400000 
H      22.71800000      23.72000000      18.75400000 
H      20.20600000      22.78700000      17.83100000 
H      22.96100000      22.60400000      16.56000000 
H      21.50000000      22.07200000      15.79000000 
N      22.26300000      20.35100000      18.61300000 
C      22.18500000      18.90700000      18.88400000 
C      21.27500000      18.61000000      20.04400000 
O      20.55100000      17.59400000      20.04700000 
C      23.56900000      18.23800000      19.08400000 
C      23.90300000      17.15600000      18.02800000 
C      25.28400000      16.55400000      18.35400000 
C      22.86300000      16.03500000      17.99300000 
H      23.12000000      20.84000000      18.78000000 
H      21.69200000      18.44900000      18.02600000 
H      24.34300000      19.01600000      19.04300000 
H      23.62500000      17.80300000      20.07400000 
H      23.94100000      17.63100000      17.05900000 
H      25.55500000      15.82500000      17.58600000 
H      26.04900000      17.30900000      18.38200000 
H      25.25800000      16.03800000      19.30200000 
H      23.18500000      15.24900000      17.29800000 
H      22.72700000      15.57600000      18.97000000 
H      21.88200000      16.37700000      17.64500000 
N      21.27900000      19.45400000      21.09600000 
C      20.39300000      19.26500000      22.23900000 
C      18.92700000      19.31100000      21.78500000 
O      18.09900000      18.47500000      22.24500000 
C      20.75500000      20.29500000      23.30300000 
C      19.89700000      20.27500000      24.61300000 
C      20.79400000      20.60500000      25.82000000 
C      18.73800000      21.28100000      24.54400000 
H      21.90800000      20.22900000      21.12100000 
H      20.52700000      18.26500000      22.64900000 
H      21.78100000      20.11400000      23.56000000 
H      20.70800000      21.29200000      22.87400000 
H      19.50300000      19.27900000      24.74500000 
H      20.19800000      20.64600000      26.73200000 
H      21.55800000      19.85700000      25.95200000 
H      21.27500000      21.57000000      25.69000000 
H      18.12700000      21.21300000      25.44300000 
H      19.10900000      22.28400000      24.44900000 
H      18.07600000      21.08000000      23.68600000 
N      18.58000000      20.24700000      20.90300000 
C      17.23700000      20.31500000      20.38500000 
C      16.87900000      19.17000000      19.46000000 
O      15.73700000      18.65400000      19.53200000 
C      16.99600000      21.66900000      19.65500000 
H      19.23600000      20.93400000      20.62100000 
H      16.52400000      20.25200000      21.21500000 
H      15.98900000      21.71500000      19.30200000 
H      17.16900000      22.48300000      20.34900000 
H      17.67100000      21.76200000      18.83000000 
N      17.78800000      18.74700000      18.59800000 
C      17.56800000      17.60000000      17.71400000 
C      17.29700000      16.32700000      18.52100000 
O      16.39700000      15.55100000      18.17600000 
C      18.76600000      17.45200000      16.76300000 
C      18.92100000      16.08300000      16.06900000 
C      17.82500000      15.77500000      15.02600000 
C      17.66500000      14.26500000      14.88800000 
N      16.60100000      13.90600000      13.87200000 
H      18.66900000      19.22700000      18.50900000 
H      16.65400000      17.76400000      17.14400000 
H      18.72100000      18.25200000      16.03700000 
H      19.67500000      17.60900000      17.35800000 
H      19.87100000      16.08200000      15.57100000 
H      18.95600000      15.30500000      16.80900000 
H      16.87400000      16.18800000      15.33000000 
H      18.07500000      16.21200000      14.07300000 
H      18.56400000      13.78800000      14.57300000 
H      17.36000000      13.83200000      15.82300000 
H      16.14600000      13.01800000      14.15500000 
H      15.87300000      14.60300000      13.86500000 
H      16.97300000      13.83800000      12.95600000 
N      18.04800000      16.12200000      19.59400000 
C      17.84200000      14.97400000      20.48700000 
C      16.39000000      14.95300000      20.98500000 
O      15.72100000      13.93600000      20.91300000 
C      18.86200000      15.03300000      21.64700000 
C      18.47400000      14.23100000      22.83400000 
C      17.98500000      14.70200000      23.99700000 
C      18.44700000      12.78200000      22.97500000 
N      17.63600000      13.67000000      24.84300000 
C      17.90100000      12.47300000      24.21300000 
C      18.86700000      11.72800000      22.10700000 
C      17.70500000      11.16100000      24.63300000 
C      18.68400000      10.42500000      22.54300000 
C      18.09100000      10.14800000      23.78400000 
H      18.82300000      16.74000000      19.81200000 
H      17.95000000      14.04700000      19.92200000 
H      19.82600000      14.71100000      21.24000000 
H      18.97000000      16.06800000      21.94800000 
H      17.84600000      15.72000000      24.30600000 
H      17.25200000      13.77400000      25.75600000 
H      19.29600000      11.93300000      21.17000000 
H      17.24600000      10.95200000      25.59300000 
H      18.99000000       9.61600000      21.92000000 
H      17.94700000       9.13200000      24.07800000 
N      15.92000000      16.07100000      21.51400000 
C      14.57700000      16.13400000      22.08400000 
C      13.49100000      16.00200000      21.03000000 
O      12.49000000      15.29800000      21.24800000 
C      14.39200000      17.46200000      22.87200000 
C      13.00900000      17.65900000      23.36800000 
N      12.35600000      16.78900000      24.21100000 
C      12.11600000      18.66000000      23.10100000 
C      11.10700000      17.27100000      24.43000000 
N      10.92700000      18.39600000      23.78400000 
H      16.50000000      16.91300000      21.58300000 
H      14.43900000      15.28200000      22.74100000 
H      15.11300000      17.42100000      23.71700000 
H      14.68100000      18.28900000      22.24000000 
H      12.71200000      15.94300000      24.55000000 
H      12.23100000      19.49600000      22.51500000 
H      10.40400000      16.77600000      25.04100000 
N      13.62300000      16.70100000      19.89700000 
C      12.54200000      16.72000000      18.90900000 
C      12.23400000      15.30000000      18.38100000 
O      11.07700000      14.98500000      18.15100000 
C      12.93500000      17.65700000      17.76100000 
C      11.82600000      17.87900000      16.72300000 
C      10.54500000      18.55200000      17.21900000 
O       9.45100000      18.15800000      16.80400000 
N      10.69000000      19.55800000      18.07200000 
H      14.42300000      17.28900000      19.74400000 
H      11.63200000      17.05300000      19.38500000 
H      13.25000000      18.60600000      18.19200000 
H      13.80500000      17.24900000      17.24100000 
H      12.22800000      18.52300000      15.92800000 
H      11.53100000      16.95600000      16.25400000 
H      11.53800000      19.91000000      18.39200000 
H       9.84600000      20.02600000      18.39900000 
N      13.28300000      14.54100000      18.15500000 
C      13.16700000      13.22100000      17.53700000 
C      12.89200000      12.15600000      18.58100000 
O      11.84000000      11.45600000      18.54200000 
C      14.44400000      12.95100000      16.71000000 
C      14.36600000      11.79100000      15.73500000 
O      15.34600000      11.74000000      14.87800000 
O      13.44900000      10.98600000      15.77700000 
H      14.22200000      14.86300000      18.32800000 
H      12.30700000      13.20600000      16.88400000 
H      14.64300000      13.86700000      16.14400000 
H      15.29000000      12.79600000      17.35800000 
N      13.79600000      11.97400000      19.57000000 
C      13.63500000      10.96600000      20.60400000 
C      12.79300000      11.55900000      21.72200000 
O      13.29700000      12.07500000      22.74700000 
C      14.99000000      10.46900000      21.15000000 
C      15.79700000       9.65700000      20.18400000 
C      16.59600000      10.25900000      19.18100000 
C      15.85800000       8.25900000      20.29600000 
C      17.39900000       9.51300000      18.36100000 
C      16.66500000       7.49900000      19.48000000 
C      17.44700000       8.12800000      18.50700000 
O      18.29300000       7.43200000      17.67200000 
H      14.53400000      12.64400000      19.69400000 
H      13.08900000      10.12600000      20.17000000 
H      15.55300000      11.32800000      21.48700000 
H      14.77300000       9.88000000      22.02600000 
H      16.58300000      11.31700000      19.10200000 
H      15.27500000       7.76600000      21.05300000 
H      18.00000000       9.97900000      17.61200000 
H      16.71700000       6.42800000      19.58700000 
H      18.32600000       6.49400000      17.82100000 
N      11.48100000      11.51500000      21.54500000 
C      10.55900000      12.15500000      22.48400000 
C      10.60300000      11.56800000      23.86400000 
O      10.24800000      12.25700000      24.84600000 
H      11.10500000      11.17200000      20.69200000 
H      10.79400000      13.21600000      22.57700000 
H       9.55800000      12.06600000      22.09900000 
N      10.95600000      10.28400000      23.97000000 
C      11.03700000       9.55900000      25.24500000 
C      11.70700000       8.22100000      24.95100000 
O      12.72400000       8.20500000      24.22500000 
C       9.67000000       9.50600000      25.95800000 
C       9.83900000       9.69000000      27.47500000 
C       8.52700000       9.63600000      28.23200000 
O       7.65800000       8.80300000      27.93000000 
N       8.38900000      10.50500000      29.21500000 
H      11.35700000       9.86500000      23.14900000 
H      11.73500000      10.09200000      25.88200000 
H       9.05300000      10.31400000      25.57800000 
H       9.12900000       8.58500000      25.73900000 
H      10.47700000       8.92400000      27.89000000 
H      10.32200000      10.63800000      27.65700000 
H       9.06900000      11.18100000      29.44400000 
H       7.54000000      10.48500000      29.78000000 
N      14.02000000       5.95300000      25.86400000 
C      15.21100000       5.72600000      26.65900000 
C      15.26800000       6.68700000      27.83200000 
O      14.89100000       7.85200000      27.74200000 
C      16.50800000       5.87900000      25.82100000 
C      16.83400000       4.65500000      25.03600000 
O      16.10500000       4.26700000      24.06100000 
N      17.91700000       3.95400000      25.40600000 
H      14.07700000       6.64100000      25.12300000 
H      15.15200000       4.70600000      27.04400000 
H      16.38100000       6.71000000      25.13600000 
H      17.31200000       6.11500000      26.47800000 
H      18.16300000       3.13100000      24.91700000 
H      18.48200000       4.24400000      26.13900000 
N      13.05400000      13.10600000      34.54200000 
C      13.17000000      12.90100000      33.10200000 
C      13.80900000      14.14200000      32.48200000 
O      13.16400000      15.19700000      32.34400000 
C      11.79300000      12.68700000      32.45300000 
C      10.91300000      11.58700000      33.08300000 
C      11.45600000      10.14200000      32.89400000 
N      10.41000000       9.22100000      32.44100000 
C       9.35200000       8.82900000      33.13800000 
N       8.39200000       8.12000000      32.54200000 
N       9.19800000       9.15200000      34.40900000 
H      12.26900000      13.62100000      34.90000000 
H      13.80500000      12.03900000      32.93900000 
H      11.23300000      13.62000000      32.52400000 
H      11.94400000      12.48100000      31.41400000 
H      10.75800000      11.78700000      34.11500000 
H       9.95800000      11.64200000      32.59100000 
H      12.22000000      10.10900000      32.12600000 
H      11.90600000       9.76900000      33.79500000 
H      10.47000000       8.90600000      31.48800000 
H       8.44200000       7.89400000      31.57900000 
H       7.59300000       7.81700000      33.04900000 
H       9.92700000       9.65600000      34.91700000 
H       8.42100000       8.89500000      34.92100000 
N      15.09600000      14.06600000      32.15800000 
C      15.87700000      15.22500000      31.72900000 
C      15.84700000      15.33200000      30.19600000 
O      16.78400000      14.99800000      29.50900000 
C      17.31100000      15.15300000      32.26600000 
C      18.02900000      16.47500000      32.24600000 
C      17.82000000      17.40100000      33.26900000 
C      18.94300000      16.79900000      31.22700000 
C      18.50200000      18.59400000      33.30400000 
C      19.62200000      17.99800000      31.25800000 
C      19.40900000      18.89600000      32.29900000 
H      15.59200000      13.19500000      32.30100000 
H      15.37500000      16.11400000      32.15500000 
H      17.25000000      14.79000000      33.27900000 
H      17.86300000      14.42400000      31.68900000 
H      17.12900000      17.15000000      34.06800000 
H      19.11000000      16.09800000      30.44100000 
H      18.33600000      19.29000000      34.10300000 
H      20.32400000      18.23600000      30.48000000 
H      19.94900000      19.82900000      32.32000000 
N      14.71000000      15.83400000      29.70400000 
C      14.51000000      16.08200000      28.27200000 
C      14.52200000      17.60200000      28.08200000 
O      15.61300000      18.16700000      27.97500000 
C      13.30700000      15.31900000      27.73100000 
O      12.17100000      15.74400000      28.52700000 
C      13.47600000      13.82500000      27.77000000 
H      13.93400000      16.02700000      30.30600000 
H      15.39400000      15.71400000      27.76800000 
H      13.14600000      15.64400000      26.71100000 
H      11.36500000      15.28300000      28.30000000 
H      12.59900000      13.33000000      27.38500000 
H      14.32800000      13.51600000      27.14800000 
H      13.65700000      13.47300000      28.78800000 
N      13.35700000      18.26000000      28.10400000 
C      13.27800000      19.69200000      28.01600000 
C      12.45800000      20.32900000      29.13500000 
O      12.35400000      21.56900000      29.16500000 
C      12.69800000      20.13800000      26.65300000 
H      12.52400000      17.70500000      28.11300000 
H      14.26800000      20.07700000      28.11300000 
H      12.69300000      21.22900000      26.59200000 
H      13.32200000      19.76700000      25.86500000 
H      11.70500000      19.78000000      26.51800000 
N      11.87300000      19.54600000      30.05200000 
C      11.02700000      20.08900000      31.09200000 
C      11.84300000      20.94700000      32.06300000 
O      11.46400000      22.07000000      32.41900000 
C      10.25500000      18.90600000      31.72500000 
C       9.00100000      19.25800000      32.50300000 
O       8.06900000      18.33700000      32.48000000 
O       8.93400000      20.32100000      33.13600000 
H      12.01900000      18.55400000      30.01800000 
H      10.30800000      20.78400000      30.64300000 
H       9.95800000      18.24700000      30.90900000 
H      10.91300000      18.33800000      32.36200000 
N      13.00100000      20.41600000      32.47300000 
C      13.97500000      21.12200000      33.29100000 
C      15.24400000      21.28800000      32.46800000 
O      15.77600000      20.30000000      31.97600000 
C      14.30400000      20.32200000      34.56900000 
C      13.13800000      20.15600000      35.48100000 
N      13.06500000      20.76700000      36.72200000 
C      11.97600000      19.44700000      35.36000000 
C      11.87900000      20.42300000      37.27600000 
N      11.19700000      19.63100000      36.48100000 
H      13.30000000      19.51000000      32.10900000 
H      13.53800000      22.05200000      33.55900000 
H      14.71700000      19.37100000      34.28700000 
H      15.09500000      20.84900000      35.10600000 
H      13.77000000      21.35600000      37.10800000 
H      11.65100000      18.83700000      34.56000000 
H      11.57300000      20.76700000      38.23600000 
H      25.28752278      10.83394371      25.45871002 
H      24.86171953       6.81572444      15.61747989 
H      21.31962945      23.69948815      19.36283677 
H      11.33150907       7.37831394      25.33685848 
H      13.77872075       5.18649658      25.45871388 
H      15.62147321       6.37789036      28.71489746 
H      13.00742116      12.30834653      34.95622138 
H      15.63671112      22.19763774      32.33258524 
