 403 
 
N                49.9711284251       29.5984142578       43.2824666084
C                48.8369841795       30.2732482648       43.8778934653
C                49.3192110947       31.4907617107       44.6772573883
O                50.4981655912       31.6525719685       44.9422010973
C                48.0851122035       29.2810141447       44.7842565485
C                47.3507429842       28.2229804951       43.9531990371
C                46.8714587064       27.1030707616       44.8651558497
O                47.5845171127       26.1624907195       45.1741554431
N                45.6191661145       27.2406649481       45.3236119641
H                50.7088135052       29.3361933332       43.9210090885
H                48.1921485298       30.6128882374       43.0598014151
H                48.8127129049       28.7833296444       45.4289153344
H                47.3782761860       29.8151183209       45.4196783139
H                46.5166795968       28.6766390908       43.4169790919
H                48.0421036002       27.7983634958       43.2239023417
H                45.0410574974       28.0236844233       45.0727977540
H                45.2547049760       26.5524394742       45.9622615615
N                44.1145749837       41.9410511262       49.2070862759
C                43.6289031981       40.7245510088       49.8119058273
C                43.0001655924       39.8781255818       48.7158234126
O                42.4574450691       40.3838574029       47.7404090028
C                42.6064900022       40.9646293859       50.9385583597
C                41.4287856404       41.8342302325       50.5122228227
C                40.1910879435       41.5883491467       51.3989292964
O                39.5499722187       42.5506793904       51.8418286563
O                39.8937370831       40.3720084077       51.5768544166
H                43.4547270375       42.4471425040       48.6271597646
H                44.5001402185       40.2168395760       50.2430821114
H                42.2235454269       39.9967695517       51.2729081713
H                43.1165096971       41.4411566917       51.7778725693
H                41.7000154774       42.8903630852       50.5061074853
H                41.1159467065       41.5735545101       49.4979539791
N                43.0734944892       38.5603382315       48.8967475248
C                42.3970211438       37.6077498572       48.0499654851
C                41.5088423569       36.7755309178       48.9770585005
O                41.9110121529       36.3586089187       50.0516453151
C                43.3407682436       36.6590196723       47.2936188063
C                44.1229188399       37.3754652042       46.1925490460
C                44.8502205256       36.3967537300       45.2708403294
N                45.6063322929       37.1306367882       44.2742703358
C                46.5073517257       36.6146333481       43.4555902359
N                47.0732972711       37.4187578127       42.5484493982
N                46.9805716705       35.3762016216       43.6302804927
H                43.6758639244       38.1570581437       49.6066475435
H                41.7973813995       38.1855300187       47.3386484730
H                44.0335887994       36.2021760017       48.0033440400
H                42.7354047604       35.8651028595       46.8500364709
H                43.4429892681       37.9831490692       45.5918345733
H                44.8584803736       38.0405101838       46.6478133951
H                45.5243788805       35.7834096688       45.8768439452
H                44.1302183092       35.7413551717       44.7598223951
H                45.2603828558       38.0548391209       43.9704928975
H                46.5919623393       38.3054207912       42.4019991010
H                47.4985877270       36.9961512190       41.7401880778
H                46.4747055267       34.7356541806       44.2166287410
H                47.6611747003       35.0017610862       42.9898171511
N                40.2684038166       36.5635488531       48.5238820011
C                39.3420563634       35.7282109681       49.2540837353
C                39.0187904766       34.4721622724       48.4344353640
O                38.8855244978       34.5040585119       47.2183207594
C                38.0174945247       36.4389459303       49.5707643911
C                38.1687732264       37.6890217293       50.4456741827
C                36.8060769594       38.0554433300       51.0512009920
C                36.6201929483       39.5284764461       51.3955330833
N                37.5199250458       39.9593023412       52.4876977659
H                39.9810915144       36.8777461867       47.6047160142
H                39.8601369109       35.4595175644       50.1792601921
H                37.5393805047       36.7133029809       48.6284738803
H                37.3751947898       35.7171106975       50.0796773952
H                38.9031686850       37.5044466456       51.2303929182
H                38.5513112447       38.5104946325       49.8388879115
H                36.0322844085       37.7986076356       50.3277164563
H                36.6394788951       37.4521816802       51.9442679922
H                36.8222028416       40.1520398882       50.5234829286
H                35.5853414256       39.6956523851       51.7033150446
H                37.2407007459       40.8781936889       52.8374520886
H                37.5123935346       39.2833432559       53.2554821296
H                38.5720274739       40.0941626873       52.1116880572
N                38.8921254584       33.3614000296       49.1744270397
C                38.3476202901       32.1206696601       48.6649769309
C                36.8543730568       32.0377734217       49.0293361869
O                36.3582634415       32.7305920352       49.9004441303
C                39.0793667952       30.9097643733       49.2537504383
C                40.5268200562       30.8334038727       48.7708489824
C                41.2650953706       29.6356368105       49.3698531123
C                40.7784350705       28.3084727574       48.7925512845
N                41.6195056448       27.1970835396       49.3202792709
H                38.8938681663       33.4506328828       50.1809960302
H                38.4697185898       32.1432720924       47.5794390459
H                39.0538546898       30.9903866730       50.3418248455
H                38.5341543014       30.0143531491       48.9569330835
H                40.5422570043       30.7759165797       47.6809350888
H                41.0392559303       31.7521614231       49.0597455499
H                42.3262185991       29.7600008696       49.1551472326
H                41.1262803759       29.6452733915       50.4518103303
H                39.7422746835       28.1225863675       49.0728266044
H                40.8406261947       28.3226708936       47.7033824382
H                41.2953681151       26.2903857985       48.9543719937
H                42.6035603509       27.3394643531       49.0486096169
H                41.5690768637       27.1806186319       50.3501373807
N                36.1852382991       31.1262644460       48.3101030641
C                34.8203590038       30.7051133988       48.5349030389
C                34.8410285083       29.1746198205       48.6991712778
O                35.8448170047       28.5365154514       48.4392139060
C                33.9436561070       31.0432544673       47.3163607308
C                33.8758397891       32.5461233020       47.0262751671
C                32.7507834771       32.8066445522       46.0125335003
N                32.9682838939       34.0082305866       45.2263337841
C                33.0465890631       34.0701866105       43.8985536581
N                32.9478286415       32.9758194700       43.1486391616
N                33.0485167086       35.2599144762       43.2872386778
H                36.6879044148       30.5488737921       47.6487762406
H                34.4444002709       31.2087112515       49.4300390080
H                34.3558312791       30.5282529577       46.4442711143
H                32.9336980224       30.6737092294       47.4988006873
H                33.6809372457       33.0856251088       47.9543445863
H                34.8279693376       32.8866201677       46.6156628534
H                32.6742627248       31.9562596565       45.3350626595
H                31.8051848239       32.9115786073       46.5530486829
H                32.9934388385       34.8755624061       45.7446419325
H                33.3342011221       32.1153592166       43.5047106558
H                33.1054369228       33.0866982018       42.1390616631
H                33.1988228951       36.1006291423       43.8218487659
H                33.3654461544       35.2762680492       42.3232593287
N                33.6895239862       28.6068194158       49.1178743470
C                33.4366043514       27.1801698706       48.9204440390
C                31.9880914603       26.8359346885       49.3042154868
O                31.1682191727       26.5272443984       48.4582322633
C                34.4416503633       26.2863898846       49.6901500820
O                34.0764615106       24.9300595331       49.6614875533
H                32.8682427813       29.1920914314       49.1920871897
H                33.5283187857       26.9488878031       47.8499731771
H                35.4390146455       26.4385989754       49.2702050277
H                34.4692137381       26.5610416626       50.7468214146
H                34.2654742776       24.5524114864       48.7945974461
N                31.7271033619       26.9228688853       50.6187725815
C                30.4756821485       26.4962355236       51.2049410308
C                29.6971418754       27.6449548556       51.8456608834
O                28.4775082699       27.6764831277       51.8618188867
C                30.7214359053       25.4613844208       52.3187238859
C                31.4806984204       24.2053599083       51.8580699946
C                31.4918619057       23.1910468568       53.0028832969
C                30.8641275689       23.5609456783       50.6176650644
H                32.5076832823       27.0206651476       51.2522539796
H                29.8576804019       26.0757151957       50.4080105252
H                31.2928875268       25.9466832836       53.1157396988
H                29.7539268784       25.1780383558       52.7408650891
H                32.5144938120       24.4788153253       51.6160291963
H                32.1437354945       22.3571849188       52.7568170507
H                31.8421558297       23.6406140121       53.9290009569
H                30.4875797101       22.8028828517       53.1676065795
H                31.4443923357       22.6818730290       50.3477272076
H                29.8364993884       23.2542252080       50.8108718294
H                30.8787606119       24.2367081749       49.7662082651
N                30.4635634660       28.5750719880       52.4429929677
C                29.9780808775       29.4312048555       53.5031582299
C                29.6353309153       30.8564016291       53.0509199237
O                28.9003997976       31.5713067369       53.7112178400
C                31.0633970976       29.4662320685       54.5961111375
O                31.5344006494       28.1478514100       54.7682023443
H                31.4583393683       28.4082464438       52.4617716379
H                29.0566170674       28.9914146442       53.9045670973
H                31.8847526179       30.1204939390       54.2675571576
H                30.6307583308       29.8710216141       55.5142442687
H                32.0404004526       28.0816974679       55.5866337209
N                30.2518623906       31.2509564132       51.9273646513
C                29.9511449192       32.5091648433       51.2736410674
C                30.0291900014       32.2591663616       49.7609814299
O                31.0585661391       31.9208773848       49.2072249449
C                30.9064269426       33.6445971993       51.7222672375
O                30.5873109491       34.7499979116       50.9021296657
C                32.3761273671       33.2516268320       51.6180777740
H                30.7410321943       30.5627827753       51.3689575347
H                28.9356876709       32.8115019707       51.5573895775
H                30.6618231059       33.8723784377       52.7737686434
H                31.1734278094       35.4839745931       51.1285000213
H                33.0133450087       34.0800464559       51.9179209246
H                32.5740978782       32.4095049285       52.2723547416
H                32.6066331118       32.9746781042       50.5941780555
N                28.8501774043       32.3884716725       49.1374325376
C                28.6014070671       31.9695982417       47.7776919726
C                27.7549387614       33.0630718541       47.1029113956
O                27.1664354721       33.9016484548       47.7639015246
C                27.8152198998       30.6348778290       47.7731314558
C                28.2862712934       29.7071599591       48.9006221605
O                29.4637495809       29.5212471960       49.1641274710
N                27.2941650111       29.1350729568       49.5953969575
H                28.0472607129       32.7617117312       49.6219795070
H                29.5762950395       31.8370065720       47.3007089933
H                26.7526112388       30.8421017103       47.9017091696
H                27.9705049906       30.1234168994       46.8223719045
H                27.5209754447       28.5196955908       50.3683488574
H                26.3241968834       29.2614995470       49.3637265195
N                27.6877660450       33.0045353269       45.7639028513
C                26.9242855539       33.9567998956       44.9955840908
C                26.2702176872       33.2397433607       43.8156101262
O                26.8790699431       32.3836597556       43.1955972824
C                27.8577483734       35.0758758459       44.4297711715
O                27.1726945733       35.7960987791       43.4154224041
C                29.1476156126       34.4784586405       43.8746347855
H                28.1461855403       32.2802940928       45.2296919263
H                26.1787585891       34.3983924354       45.6623688061
H                28.1123211025       35.7508737575       45.2555003774
H                26.5496487213       36.4012716081       43.8353429150
H                29.7783055824       35.2545925115       43.4535993663
H                29.6981170274       34.0030329632       44.6801890732
H                28.9266893238       33.7457424862       43.1033851065
N                26.9974217056       36.3285720477       40.4531450864
C                28.3782004278       36.4886148484       40.0456660054
C                28.8966234779       35.1590255105       39.5151000040
O                29.5657090657       35.0973306676       38.4836749510
C                29.2371957209       37.0654970672       41.1771715602
C                28.7795861489       38.4937550005       41.5049749796
C                30.7102737082       37.0243895423       40.7787768605
C                29.3587251184       39.0148908185       42.8181649619
H                26.7910328906       36.2486782450       41.4414573889
H                28.3979707027       37.1907702924       39.2014707290
H                29.0726366478       36.4376851350       42.0528356019
H                29.0697377396       39.1532805255       40.6854739591
H                27.6897002742       38.5105245048       41.5673173591
H                31.3124899238       37.5111679357       41.5368512691
H                31.0553918547       35.9995060931       40.6645071284
H                30.8740946582       37.5365000405       39.8318623584
H                28.9086558869       39.9736192842       43.0647662887
H                29.1569760196       38.3183131144       43.6280895009
H                30.4327039699       39.1584821618       42.7420044654
N                28.5652912299       34.0567073638       40.1886111193
C                28.9952877447       32.7691452647       39.6699689605
C                28.5747391091       32.6471564928       38.2047460529
O                29.3348831324       32.2045853279       37.3478602031
C                28.4231816012       31.5978106566       40.4947181984
O                27.1019998415       31.2677953733       40.1850740636
H                27.9413129267       34.0780920971       40.9834848520
H                30.0926468986       32.7311561868       39.6998930398
H                29.0176510005       30.7064151006       40.2805703052
H                28.5280212597       31.8424460145       41.5589508613
H                26.5189726468       32.0229901894       40.3956355912
N                44.6181403206       29.6280174862       37.7128575794
C                44.5385172096       29.0700035595       39.0493222095
C                43.3880682671       29.6610422800       39.8635021620
O                42.7790980634       28.9922629035       40.6893442549
C                45.8429046557       29.3002468126       39.8184487155
C                46.9455017888       28.2583388488       39.5791234621
C                46.5409853747       26.8852157699       40.1147802325
C                47.3728303797       28.1609459933       38.1162568607
H                45.3861881766       30.2593097685       37.5381728593
H                44.3243681465       27.9981231181       38.9644636783
H                46.2087807179       30.3005586587       39.5742361129
H                45.6049891209       29.3053733483       40.8848499676
H                47.8098926567       28.6138466799       40.1486098969
H                47.4154060998       26.2407605597       40.1502949598
H                46.1290542140       26.9751003476       41.1178033308
H                45.7965076111       26.4232299765       39.4707883734
H                48.1611067817       27.4166685324       38.0267589376
H                46.5393329780       27.8618294432       37.4853531014
H                47.7684274122       29.1140498141       37.7647997286
N                43.1160331203       30.9483252988       39.6243114503
C                42.0696167259       31.6619443671       40.3072504050
C                40.6849438707       31.4568021689       39.6634502072
O                39.6936148745       32.0633233165       40.0534422992
C                42.4272999108       33.1464390748       40.3615591801
C                43.7924754420       33.3993502103       40.9903320295
C                44.3186445746       34.8246824727       40.6246269504
O                44.3833832029       35.1108042374       39.4105874656
O                44.6532461848       35.5541493195       41.5746962994
H                43.6771787672       31.4830107447       38.9763401172
H                41.9948661098       31.2458472435       41.3219078226
H                42.4422070335       33.5314708192       39.3358745743
H                41.6509750521       33.6892672227       40.9050114416
H                43.7629243673       33.3132036549       42.0773995776
H                44.5255824815       32.6950051615       40.5902119605
N                40.6778598254       30.5152283105       38.7178304990
C                39.5573040420       30.0497168505       37.9338007858
C                38.8825505653       31.1780552640       37.1413347531
O                37.6705792887       31.2284137929       36.9956283530
C                38.5482463630       29.2652697853       38.7789997749
C                38.9650640924       27.8293703568       39.0295817978
O                38.3198837634       26.8850823081       38.5949911612
N                40.0635185934       27.6567630177       39.7665683913
H                41.5715483367       30.1391136656       38.4113124679
H                39.9908754716       29.3817789769       37.1792754863
H                38.4294859830       29.7637499717       39.7407164400
H                37.5817713044       29.2700089479       38.2751837178
H                40.3958062745       26.7225822255       39.9506202628
H                40.6370670469       28.4224649912       40.0824742340
N                33.5749634825       27.6347343623       40.4563560972
C                33.6703122757       28.7484592860       41.3690168190
C                35.0780738716       29.3672300075       41.3303736460
O                36.0788758533       28.7051655670       41.5672248281
C                33.3414165366       28.2291499711       42.7894290454
O                32.1538482373       27.4722861673       42.6863709603
C                33.1723463066       29.3927351560       43.7622175966
H                34.0754134914       26.7977743901       40.7191329101
H                32.9166658893       29.4765196766       41.0553817403
H                34.1687858952       27.5734872219       43.1104213764
H                31.8798571337       27.2131819811       43.5779285301
H                32.9974754384       29.0163402724       44.7680482873
H                34.0743135537       30.0000996360       43.7622929697
H                32.3183904246       29.9925603815       43.4519025502
N                35.0966783078       30.6697387337       41.0258235249
C                36.2813158199       31.4945014654       40.9866821085
C                36.5794521357       32.0706372636       42.3701274501
O                35.7625327714       32.0241778482       43.2801600150
C                36.0487525800       32.6696090279       40.0265000366
C                34.8990690375       33.5063811754       40.6285217682
O                35.1593680566       34.5611834001       41.2236872117
O                33.7514210063       32.9993840558       40.5360552019
H                34.2444463568       31.1889967257       40.8237183939
H                37.1337659186       30.8987719979       40.6521609128
H                36.9550330660       33.2662389758       39.9135652373
H                35.7573221110       32.2807681203       39.0518264421
N                37.7994592913       32.6089243582       42.4966260124
C                38.1290771207       33.4658079712       43.6145832586
C                38.3239531056       34.9067993007       43.1240958157
O                38.5763546883       35.1708400876       41.9577566174
C                39.4176282720       33.0118863742       44.3218876741
C                39.4910313777       31.5203041535       44.4895194229
C                38.5957246864       30.8298987509       45.2986409024
C                40.4841480786       30.8004460712       43.8440814585
C                38.7526607565       29.4786878764       45.5371479442
C                40.6260388240       29.4388528122       44.0325276507
C                39.7805702748       28.7756819983       44.9138923770
O                39.9464833385       27.4654711237       45.2256653643
H                38.3974766572       32.6802366162       41.6816200315
H                37.2724639169       33.4195949253       44.2936712601
H                40.2694457078       33.3515365034       43.7286089747
H                39.4607361030       33.5086132128       45.2941185193
H                37.7600910076       31.3642246427       45.7220997934
H                41.1585546070       31.3234699241       43.1816808231
H                38.0860502637       28.9368245979       46.1887080441
H                41.3875312155       28.9014100394       43.4865825462
H                40.5728430099       27.0549761846       44.6137459097
N                38.2143028538       35.8312222857       44.0946068868
C                38.2318166793       37.2593673827       43.8413818383
C                39.3614517526       37.9328882166       44.6247821553
O                39.6050450814       37.6381958518       45.7861808138
C                36.8564906729       37.8516803063       44.2427980895
C                36.8955275774       39.3710632167       44.3629844224
C                35.8020084788       37.4299033381       43.2234108981
H                38.1645774885       35.5473656768       45.0650264076
H                38.3892770343       37.3904626549       42.7668132436
H                36.6093149989       37.4433895985       45.2275370498
H                35.9004652610       39.7533716683       44.5732924158
H                37.5593975672       39.6728026178       45.1686784298
H                37.2463325378       39.8350158934       43.4443236888
H                34.8202247041       37.7649596720       43.5458774555
H                36.0184440069       37.8914063991       42.2622837706
H                35.7951378677       36.3539108988       43.0621420194
N                40.0637458648       38.8599430585       43.9419434851
C                40.9658471437       39.7722750275       44.6120992050
C                40.2199619470       41.0514775140       44.9953058454
O                39.2488849551       41.4517055975       44.3587319293
C                42.1562725221       40.2593106122       43.7593596135
C                42.8126045451       39.2189939286       42.8525232355
C                44.1453704882       39.8146066313       42.3217685699
O                44.0923713354       40.6631499104       41.4184859923
O                45.2037189731       39.4456429644       42.8808879254
H                39.7340752736       39.1466511609       43.0323997697
H                41.3179433611       39.2646414801       45.5139185868
H                41.8229613379       41.0892234024       43.1286329703
H                42.9038018305       40.6414279444       44.4611824424
H                43.0226400680       38.2915370552       43.3846324465
H                42.1809814108       38.9932163010       41.9919580468
N                40.7601092290       41.7455969386       46.0005278502
C                40.2449797558       43.0490166137       46.3859714363
C                41.4346211500       43.8699891530       46.8960786919
O                41.9364468435       43.7186356742       47.9967589463
C                39.1024744386       42.9351975710       47.4081411504
O                37.9278398284       42.4535289416       46.7794243642
C                38.8185385571       44.2816321254       48.0696389114
H                41.4516472021       41.3169470958       46.6102878599
H                39.8273275218       43.5123373222       45.4816698759
H                39.3944195456       42.2123441511       48.1858897471
H                38.1411028716       42.1593648119       45.8801644497
H                37.8677834120       44.2216347572       48.5886036073
H                39.5982377166       44.5094244360       48.7902608194
H                38.7642920118       45.0678288807       47.3217430244
N                38.9462462275       44.3620010241       55.6717364386
C                39.0184605563       45.4392095725       54.7168022970
C                37.6484434554       45.4483237666       54.0091818893
O                36.8941436583       44.4841221896       54.1318169022
C                40.1545723692       45.2069261382       53.7112739100
C                40.4534139078       46.4145286829       52.8506040441
O                40.2661485917       47.5682988818       53.2119163104
N                41.0539934576       46.1299883852       51.6884349458
H                38.1463930416       43.7614756104       55.4948824666
H                39.1732855996       46.3965828809       55.2244374500
H                41.0584382235       44.9773991285       54.2834500502
H                39.9183393642       44.3444398944       53.0858029696
H                41.2138919105       46.8753236048       51.0271901796
H                41.0832825598       45.1851988164       51.3445188289
H                49.6953452402       28.8372261801       42.8893554979
H                48.6609552807       32.1738882021       44.9935444101
H                44.3701075537       42.5155074625       49.8510606725
H                25.3354564067       33.4709404947       43.5458523945
H                26.5180907538       37.0378846748       40.1754448240
H                27.6586822179       32.9317068996       37.9221317609
H                44.7037361502       28.9618634671       37.1137647846
H                39.4376965753       31.8992215249       36.7269289958
H                32.7130726627       27.3907323955       40.3691365189
H                41.8413123345       44.5751094678       46.3152107016
H                39.6937589255       43.8635168773       55.6194074634
H                37.3774466699       46.2349640325       53.4544226313
