 446 
 
N                25.9898771316       22.3254707442       23.8022232852
C                27.2474846051       22.5587503660       23.1290759691
C                28.2154554373       21.4156439350       23.4198843173
O                28.1179621244       20.7151566410       24.4207407396
C                27.8913030555       23.8751819273       23.5769105417
H                25.9803186105       22.3247103959       24.8164634634
H                27.0297496017       22.6166040264       22.0562732420
H                28.8390054083       24.0216332936       23.0632404803
H                27.2334733737       24.7017877463       23.3223988848
H                28.0730623251       23.8698089239       24.6497302543
N                34.6576905627       22.1957412771       21.7824485284
C                34.4040942810       23.2916027724       20.8761964395
C                34.2615040991       24.6041767961       21.6383082406
O                34.8501818397       25.6192794854       21.2715065202
C                33.1271990463       23.0031113826       20.0925386511
C                32.7536343752       24.0826219086       19.0908954095
C                31.4860958862       23.5955124282       18.3121594868
O                30.4838401945       23.3284147291       19.0031724032
O                31.5921469026       23.4916410340       17.0769377481
H                34.2212193922       21.3009478640       21.5474577716
H                35.2486250007       23.4122463133       20.1785839525
H                33.2553018297       22.0516426929       19.5681134384
H                32.3023030869       22.8802172726       20.7981587435
H                32.5192775452       25.0200267379       19.6023278319
H                33.5610651644       24.2612919169       18.3790276328
N                33.4097839147       24.5876828643       22.6611216734
C                33.0812064565       25.7976287980       23.3886720029
C                34.3287473953       26.3910336308       24.0489867421
O                34.6201240340       27.5743858453       23.8992705674
C                31.9916088745       25.4988196498       24.4146217574
C                31.5940405898       26.7050217007       25.2756976511
C                31.1157043901       27.8817482097       24.4293249240
C                30.5006746456       26.2779294422       26.2525377473
H                32.9449546209       23.7276956493       22.9213341815
H                32.7372351580       26.5434897547       22.6585605480
H                31.1187860222       25.1276008324       23.8709011902
H                32.3548927777       24.6899624706       25.0533941351
H                32.4757605237       27.0302049895       25.8365909508
H                30.7079793939       28.6592160428       25.0692546740
H                31.9393072808       28.3112777961       23.8648413950
H                30.3420538857       27.5638238183       23.7337339939
H                30.2260965346       27.1103032565       26.8935300424
H                29.6211283170       25.9535439403       25.7021433095
H                30.8494485177       25.4567403700       26.8722829061
N                36.5099174048       27.9192622323       21.5294978482
C                35.9919290198       29.1936492228       21.0685219186
C                36.4095240667       30.2958873347       22.0417282175
O                37.0061252897       31.2972289324       21.6639765403
C                34.4704669039       29.1407222169       20.9380917387
C                33.8352770185       30.5128168864       20.6707110928
C                34.4075007052       31.1705961254       19.4175707352
C                32.3213203761       30.3617344927       20.5498695108
H                35.8581010662       27.1473641164       21.6249261979
H                36.4577793987       29.4299327958       20.1036009787
H                34.2144974251       28.4479739973       20.1333821810
H                34.0673167996       28.7317185049       21.8666361685
H                34.0392006508       31.1643396019       21.5271947443
H                33.8733882277       32.0918481296       19.2010707590
H                35.4556537047       31.4207430145       19.5549154829
H                34.3084324292       30.5035770493       18.5642625325
H                31.8628086577       31.3345449669       20.3970118874
H                32.0591305014       29.7189053909       19.7112509280
H                31.9087866361       29.9247765157       21.4560331189
N                36.0508253571       30.0829248223       23.3056122820
C                36.3438816363       31.0312464520       24.3573487794
C                37.8155335008       31.4736907850       24.3023321579
O                38.1441695924       32.6459269462       24.3613106559
C                36.0666178118       30.3944667385       25.7127576021
S                34.2948373558       30.0459039531       25.9763189288
H                35.5556770405       29.2341994846       23.5603227216
H                35.7295942654       31.9321985181       24.2201662390
H                36.5657767618       29.4270775451       25.7695015786
H                36.4091697962       31.0370015230       26.5195426116
H                33.9726217570       31.2866606173       26.3474313187
N                38.7560024515       33.5600417015       21.2158929545
C                38.1250473740       34.8628352524       21.3095253964
C                39.0061968315       35.8678187796       22.0412517058
O                39.0135381797       37.0566140076       21.7377703778
C                36.7987911542       34.7055341462       22.0434837675
H                38.1908413513       32.7618675035       21.4837525926
H                37.9665265988       35.2685828826       20.3012674168
H                36.3172467379       35.6702436862       22.1694469855
H                36.1455925614       34.0452838185       21.4787644414
H                36.9840236451       34.2613084609       23.0187282257
N                33.5096006442       42.1169560601       17.3603028368
C                32.3473306201       41.9981580523       18.2234591748
C                31.2924961401       41.1051241099       17.5559055485
O                30.7999449937       40.1392299641       18.1265560632
C                31.7622321101       43.3750215238       18.5492504397
C                32.6923885988       44.2001825300       19.4438666965
C                31.9697751977       45.3825541860       20.1024844348
N                31.5740515371       46.4159202314       19.1606216974
C                32.3561431728       47.4120359918       18.7443990323
N                33.6420806655       47.4800915793       19.0639181524
N                31.8237709806       48.3367550296       17.9451911028
H                33.8809661490       43.0435114027       17.1857740992
H                32.6426056854       41.4748667175       19.1424875055
H                31.5707622388       43.9017827668       17.6152010401
H                30.8108604893       43.2250441469       19.0620596515
H                33.0747657649       43.5719043185       20.2487713211
H                33.5470650032       44.5656508135       18.8756314963
H                31.0558807978       45.0235798719       20.5776629036
H                32.6224222372       45.8082172272       20.8689510432
H                30.5773899439       46.5524151654       19.0156196403
H                34.1190588736       46.7504448245       19.5808042573
H                34.2374319976       48.1998282650       18.6758543976
H                30.8331395345       48.3073391014       17.7204089106
H                32.3667740400       49.1352394834       17.6636892063
N                30.9297738449       41.5177780032       16.3399431954
C                29.8956878625       40.8549149291       15.5735089634
C                30.2074987248       39.3638221768       15.3982968732
O                29.4100270119       38.4855204723       15.7047946317
C                29.7753059839       41.5404444744       14.2028954939
O                29.4835793531       42.9057809561       14.4306555826
C                28.6918334243       40.8784871497       13.3555307052
H                31.4026206728       42.3042098037       15.9038777974
H                28.9433671479       40.9236604437       16.1154270079
H                30.7530732125       41.4583673005       13.7045445522
H                29.3107743621       43.3054499662       13.5673370282
H                28.6575047915       41.3310683869       12.3684043158
H                28.9047428992       39.8198312625       13.2487257091
H                27.7283196309       40.9891571395       13.8463917895
N                31.3806850901       39.1174100753       14.8070265207
C                31.7849353727       37.7654016418       14.4780279575
C                31.6532782189       36.8494078275       15.6929514340
O                31.0849537197       35.7616714394       15.6087093043
C                33.2252673960       37.7448702284       13.9379480302
C                33.7560648038       36.3149011688       13.8579755576
C                33.2810998860       38.4067468596       12.5627811044
H                32.0631935765       39.8580937488       14.6794898259
H                31.1019608091       37.3627824861       13.7167629954
H                33.8463610797       38.3105879355       14.6386894520
H                34.7456832236       36.3082349223       13.4096776333
H                33.8318401980       35.8627966414       14.8444497188
H                33.0986952290       35.6972711873       13.2502500088
H                34.2963141773       38.3616532347       12.1792359424
H                32.6295557923       37.8841963381       11.8680229638
H                32.9845719903       39.4480476799       12.6274072413
N                32.2332089051       37.3041806337       16.7990889326
C                32.3696512540       36.4749265296       17.9764962382
C                31.0114596039       36.2614073765       18.6373874432
O                30.6615812613       35.1543609205       19.0420039784
C                33.4237921562       37.0653082422       18.9211663920
C                33.5400041108       36.2053828048       20.1719055174
C                34.7715331978       37.1201559369       18.2015520758
H                32.6534606197       38.2268155944       16.8200953419
H                32.7138659106       35.4794029108       17.6642713411
H                33.0974914928       38.0731858299       19.2014234694
H                34.2580682351       36.6391500431       20.8620806950
H                32.5807121671       36.1248790302       20.6735908207
H                33.8724951412       35.2051426338       19.9026998327
H                35.5732669184       37.3159492176       18.9083408932
H                34.9683390797       36.1601276403       17.7311598552
H                34.7760782129       37.8977070364       17.4448602422
N                30.2168898213       37.3329675102       18.7172771173
C                28.8701900013       37.2009536411       19.2389505216
C                28.1595928845       36.0479278190       18.5190824388
O                27.5677233955       35.1606361550       19.1251722046
C                28.1101828616       38.5111346262       19.0478223296
C                26.7458171718       38.4913223351       19.7364761811
C                25.9159456273       39.6882751667       19.2962560108
O                25.7468654388       39.9642530754       18.1201466663
N                25.3776183052       40.4106288047       20.2901193032
H                30.5125920167       38.2621746889       18.4343984858
H                28.9159149051       36.9430320466       20.3061350154
H                28.7156802251       39.3184638776       19.4600733778
H                27.9677238220       38.6995736592       17.9824886168
H                26.2057020029       37.5894902610       19.4390473633
H                26.8591545637       38.4822003118       20.8187423314
H                25.5440283866       40.2116641681       21.2651994841
H                24.8099367789       41.2103481439       20.0556702843
N                28.2034891724       36.1336833821       17.1872507316
C                27.6026197505       35.1234051067       16.3377269425
C                28.1554580056       33.7498442143       16.7086438355
O                27.4110087812       32.8352278490       17.0654014768
C                27.8596573143       35.4221632994       14.8644695164
C                27.0119372535       36.5989502716       14.3838630064
C                27.2954039572       36.9114281987       12.9183942528
N                26.4425385561       38.0011608140       12.4789130067
C                26.5172595230       38.6116274724       11.3008269815
N                27.4577301193       38.2830441903       10.4219200670
N                25.6695882572       39.5997950411       11.0217768713
H                28.7176712809       36.8824129784       16.7353935512
H                26.5221516452       35.0844036870       16.5366599322
H                28.9211418313       35.6404405384       14.7419147768
H                27.6337254177       34.5165897532       14.2959750202
H                25.9597523067       36.3413116441       14.5139666684
H                27.2400762152       37.4746478770       14.9933970770
H                28.3456803972       37.2013689632       12.8186854236
H                27.1172426137       36.0080255064       12.3244134448
H                25.7000573294       38.2602467991       13.1149447073
H                28.0477161419       37.4828151389       10.5725417403
H                27.4849571407       38.7246051754        9.5138259119
H                24.9533978072       39.8678652951       11.6764906264
H                25.6942313907       40.0630353954       10.1282402689
N                29.4775509682       33.6289042362       16.6721328783
C                30.1034489534       32.3444414570       16.9067746959
C                29.4706914572       31.6713205393       18.1274230730
O                29.0661744832       30.5149667387       18.0865542235
C                31.6070036750       32.4935319823       17.1252779569
C                32.3514870840       32.8043349286       15.8261913616
C                33.8068092426       33.1354107501       16.1072192908
O                34.1391843582       33.9639134791       16.9412831100
N                34.7054862438       32.5000773690       15.3439134903
H                30.0593008458       34.3960568971       16.3430399472
H                29.9034808699       31.6805456657       16.0503963049
H                31.7739088500       33.2934767487       17.8486384100
H                31.9844592648       31.5617329212       17.5512728765
H                32.2597099534       31.9676117766       15.1352069436
H                31.9029539189       33.6858908220       15.3628085701
H                34.4356922865       31.7799033057       14.6966425069
H                35.6859733256       32.6685638516       15.5074216221
N                29.4632135887       32.4085530639       19.2442329841
C                28.8773079955       31.8756675747       20.4589624842
C                27.4434399893       31.4154704773       20.2040565310
O                27.0768738850       30.2751833050       20.4601095456
C                28.8996894860       32.9040989014       21.5973342638
C                30.2161719471       32.8950087851       22.3250179733
C                30.4971087469       31.8793984833       23.2319980360
C                31.1694968178       33.8759580451       22.0948418143
C                31.7083725183       31.8461403984       23.8980326227
C                32.3822797396       33.8469053750       22.7630425730
C                32.6506198552       32.8335287201       23.6655220279
H                29.7722265077       33.3737103388       19.2241011923
H                29.4320909643       30.9719619447       20.7463742294
H                28.6924421943       33.8872016521       21.1721290300
H                28.1014114908       32.6449916283       22.2962934405
H                29.7615305854       31.1074374933       23.4057917779
H                30.9594102450       34.6543112219       21.3768456812
H                31.9183379592       31.0497077147       24.5942109561
H                33.1212671953       34.6107727078       22.5762541912
H                33.5952298335       32.8158989523       24.1876627830
N                26.6008219048       32.3559733203       19.7687908316
C                25.1964270666       32.0473572284       19.5937881962
C                24.9840491353       30.6889890812       18.9100864944
O                24.0757327468       29.9406586161       19.2509061398
C                24.4946146278       33.1709151639       18.8139706487
O                24.7341759071       33.1682660283       17.4350195436
H                26.9394978023       33.2751535172       19.5037269404
H                24.7191181360       31.9708459160       20.5814050977
H                23.4136894805       33.0632607710       18.9323329700
H                24.8134005545       34.1279409110       19.2564316223
H                25.7010979395       33.0912016807       17.2816839382
N                25.8203834302       30.4267286693       17.9053524620
C                25.6818123551       29.3037234201       17.0151290456
C                26.0277471571       27.9389695404       17.6137531109
O                25.7960725324       26.9294978218       16.9518991785
C                26.5709621847       29.5455300994       15.7888185409
C                26.0588525524       30.6741359867       14.9014797642
C                27.1348204260       31.0370770158       13.8303858247
O                27.4834795540       30.1292524389       13.0493725340
O                27.5634281784       32.2087413364       13.8333201022
H                26.5702314433       31.0676136050       17.6877189931
H                24.6285895009       29.2329481129       16.7033906299
H                27.5777490401       29.7842799444       16.1469837470
H                26.6445990284       28.6316870296       15.1984004552
H                25.1481677134       30.3611673503       14.3858612822
H                25.8449384729       31.5684691866       15.4859493757
N                26.5528610735       27.8851555276       18.8386236073
C                26.9937909261       26.6175716603       19.3790585773
C                25.8905156190       25.8456078175       20.1022421937
O                26.0184611409       24.6528710879       20.3502320585
C                28.2017505556       26.7328721892       20.3287030897
C                29.3676928344       27.4309550782       19.6361982336
C                27.8326235243       27.4239137252       21.6370162263
H                26.7710616837       28.7305325126       19.3534116365
H                27.2993867790       25.9921405824       18.5291109672
H                28.5027988121       25.6992921439       20.5396569445
H                30.2078428570       27.5211384638       20.3203430553
H                29.6984611871       26.8528992708       18.7742355484
H                29.0925652438       28.4267764629       19.2964985628
H                28.6955890202       27.4397664171       22.2963342607
H                27.5163567227       28.4463740120       21.4618129110
H                27.0250334734       26.8960534965       22.1357606084
N                24.8113967008       26.5380841696       20.4862441094
C                23.7705754025       25.8999973918       21.2719505147
C                22.7366052879       25.2697255761       20.3328570057
O                21.8599378591       25.9335814655       19.7817295874
C                23.1487992625       26.9058928105       22.2423239081
C                24.1313498049       27.2242079518       23.3214615133
C                24.5586360841       26.3802217781       24.3104589786
C                24.8839106338       28.4302965284       23.4654197893
N                25.5272520998       26.9871673610       25.0617064621
C                25.7506813696       28.2391271480       24.5706473229
C                24.9019448380       29.6479296519       22.7830583255
C                26.6450441654       29.2216785610       24.9765332436
C                25.7725068867       30.6242160064       23.2094203535
C                26.6446462655       30.4097505470       24.2809135910
H                24.6862563189       27.5035701669       20.2180594761
H                24.2572943849       25.0908399244       21.8282937053
H                22.8696739516       27.8053076617       21.6922692840
H                22.2334396841       26.4729201175       22.6494513197
H                24.2407178297       25.3797097903       24.5334848305
H                25.9898174643       26.5832788988       25.8579006472
H                24.2550177190       29.8127184994       21.9343272328
H                27.3139707936       29.0608505424       25.8066758324
H                25.7972794960       31.5805839255       22.7059166491
H                27.3290885043       31.1953924311       24.5653488650
N                22.9136854543       23.9634182897       20.1453354058
C                22.1453290503       23.1701530446       19.2105841794
C                21.1894875626       22.2485622131       19.9613017002
O                21.3361119561       21.9942411703       21.1569482236
C                23.1064131481       22.3264959951       18.3595736535
C                23.9523202548       23.1715896820       17.4047321123
C                23.1258239681       23.7933062826       16.2758626430
C                23.9120996430       24.8035247583       15.4487722035
N                25.0097586828       24.1423904462       14.6840801455
H                23.6378529851       23.4651724046       20.6624527423
H                21.5624542909       23.8599420371       18.5973825107
H                23.7651088689       21.7973946621       19.0497017092
H                22.5378450839       21.5850565004       17.8013195176
H                24.4447987766       23.9592127466       17.9772842899
H                24.7154599389       22.5104995704       16.9941929296
H                22.7201758427       23.0089239266       15.6350586665
H                22.2809595317       24.3347183777       16.6994718695
H                23.2465539593       25.2989388568       14.7422613317
H                24.3574076450       25.5637369751       16.0938006544
H                25.5083658589       24.8389035258       14.1137567895
H                25.6819391040       23.7255212868       15.3429542563
H                24.6269653388       23.4049948435       14.0738867026
N                27.4304600331       37.8203619143       28.3768913751
C                28.4257523711       37.8294763023       27.3190568961
C                27.7981190902       38.2927141221       26.0023110324
O                28.2666563881       39.2137356983       25.3459749451
C                29.0135572539       36.4222312320       27.2033641368
C                29.9318235639       36.2049553211       25.9965862846
C                31.0779632312       37.2101955765       25.9602501584
C                30.4787188402       34.7797087953       26.0370324131
H                27.3518819366       36.9689884917       28.9248210374
H                29.2043836914       38.5627515785       27.5653535371
H                29.5619907581       36.2098910196       28.1243628607
H                28.1787438485       35.7232427491       27.1403587811
H                29.3375687334       36.3245566754       25.0845334892
H                31.7646598877       36.9551292410       25.1585292805
H                30.7073292416       38.2157235403       25.7773390493
H                31.6197954674       37.1975182207       26.9021408059
H                31.1018992530       34.5831384649       25.1693219880
H                31.0759060582       34.6370975976       26.9345163265
H                29.6703704266       34.0536625658       26.0391155350
N                26.7212446923       37.6008099050       25.6197218858
C                26.0507267692       37.9130458836       24.3747705358
C                25.7424351073       39.4091680263       24.2938611701
O                25.9560613345       40.0638969693       23.2771407556
C                24.7615349118       37.1043186883       24.2323103855
C                24.9983834975       35.6021335622       24.0136988597
C                23.6606386849       34.8689076403       24.1003893635
C                25.6614352295       35.3209735371       22.6668625284
H                26.3345232390       36.8759584416       26.2135258485
H                26.7310225062       37.6943364475       23.5416908428
H                24.1737311894       37.2587991999       25.1396594404
H                24.1935294100       37.5088089592       23.3915860299
H                25.6494579894       35.2348575754       24.8118124505
H                23.8157940265       33.8015422869       23.9743889207
H                23.1981306112       35.0562238406       25.0659827874
H                22.9906188776       35.2210287587       23.3197729585
H                25.7373048836       34.2500970530       22.5003570256
H                25.0770132790       35.7533601889       21.8577337182
H                26.6658893986       35.7322421419       22.6209511599
N                28.5788208610       42.3219916318       23.7012654875
C                29.0004997424       42.6311260294       22.3573590508
C                28.2193558901       43.7544880170       21.6737930825
O                28.7341945865       44.3358541415       20.7171960188
C                28.8343382169       41.4009448890       21.4525613145
C                29.8070612757       40.3054948458       21.7869169154
C                31.1582603707       40.4653652093       21.5120454378
C                29.3704580551       39.1183259582       22.3541927313
C                32.0582576523       39.4586381742       21.8041019040
C                30.2681902619       38.1030360929       22.6350065328
C                31.6142435311       38.2758699120       22.3695568895
H                28.0640144415       41.4673676791       23.8592240230
H                30.0512892565       42.9443940698       22.3912140709
H                27.8075735243       41.0481869649       21.5603476387
H                28.9743840895       41.7213229792       20.4166097287
H                31.4893482179       41.3905179855       21.0702489093
H                28.3233269906       39.0038508390       22.5882873206
H                33.1082241983       39.5933955404       21.5994003132
H                29.9190080086       37.1779969769       23.0675411203
H                32.3159467930       37.4929840905       22.6093180131
N                26.9684364008       43.9487950578       22.0767312560
C                25.9832901027       44.6965030721       21.3170842217
C                26.1422310997       46.2201077597       21.4598943909
O                25.3357812197       46.9367456522       22.0283247896
C                24.5841660063       44.2759639441       21.7124437222
C                23.5190103308       44.7736851452       20.6758863734
O                23.9410877708       45.2298954266       19.5981810891
O                22.3292991017       44.6388783792       21.0171742672
H                26.6447811994       43.5810324884       22.9663332361
H                26.1323328372       44.4736502060       20.2502507707
H                24.5119584525       43.1881701368       21.7691495898
H                24.3172142240       44.6821193914       22.6887808309
N                33.9441625872       36.7927412302       29.0347669058
C                34.5514459424       35.5923679811       28.4975371198
C                35.2731223590       34.8591785503       29.6318170901
O                35.1393335986       33.6554793017       29.8075486337
C                35.5093430927       35.8918571985       27.3320408045
C                34.7387945385       36.4625111952       26.1350010788
C                36.2398908760       34.6064495199       26.9497269377
C                35.6565096803       36.9516104956       25.0195583593
H                34.1465583203       37.6875914022       28.5959037353
H                33.7574967061       34.9125522629       28.1553380123
H                36.2362212705       36.6309752981       27.6815370725
H                34.0682770280       35.6940961919       25.7460516468
H                34.1272485572       37.2996338797       26.4694225869
H                36.9238058762       34.7697180390       26.1239318766
H                36.8108481397       34.2210401856       27.7879867397
H                35.5211137977       33.8434690176       26.6573230170
H                35.0639974981       37.3880970986       24.2199576998
H                36.3380006315       37.7092055105       25.3968734294
H                36.2435440600       36.1390771306       24.6034520875
N                32.9869316769       33.1254609157       32.0641918742
C                32.4660138821       31.9037407423       31.4811917662
C                33.5267063562       30.8030261480       31.5615059776
O                33.2712121013       29.6925892935       32.0248017268
C                32.0224578698       32.1771344691       30.0459011982
C                31.4664031288       30.9492286913       29.3140590789
C                30.2885011807       30.3265729404       30.0616221379
C                31.0338692776       31.3558900451       27.9066165696
H                33.0236387468       33.9601117937       31.4890107347
H                31.6217024056       31.5595880976       32.0936062481
H                31.2595667049       32.9587255316       30.0788164098
H                32.8837491837       32.5681305233       29.5003242472
H                32.2618554015       30.2007308376       29.2382367526
H                29.8292245479       29.5510803275       29.4540208223
H                30.6131778215       29.8703972348       30.9941906207
H                29.5355016920       31.0790563635       30.2863904593
H                30.7133295893       30.4849789432       27.3419732068
H                30.2074455907       32.0597258952       27.9588481939
H                31.8523134001       31.8271528303       27.3701721135
H                25.3999500548       22.9628104884       23.5660367181
H                28.9605271133       21.2171534395       22.7831192736
H                35.5425616493       22.0358408389       21.8203300527
H                34.9196017814       25.8128757732       24.6116807852
H                37.1382909686       27.6252646053       20.9561636877
H                38.5402339230       30.7901331042       24.2153942770
H                39.0067110217       33.4081154309       20.3649736744
H                39.5971273387       35.5637514964       22.7884760515
H                34.1953468537       41.6539391835       17.7143755808
H                20.4171409439       21.8316782071       19.4820434961
H                27.6143111507       38.4736459135       28.9680079312
H                25.3548428303       39.8832743987       25.0844276596
H                29.3004195005       42.2578403684       24.2352879767
H                26.9434416182       46.6775742910       21.0741664069
H                33.0480180630       36.7200019908       28.9943442044
H                35.8723305110       35.3648759051       30.2524778477
H                32.4840321602       33.3581391364       32.7733836126
H                34.4546979208       30.9779424281       31.2325136509
