173
Properties=species:S:1:pos:R:3 pbc="F F F"
N       8.72600000      23.87900000      40.66900000 
C       9.15700000      23.36900000      41.93600000 
C      10.25000000      24.19200000      42.57800000 
O      10.68600000      23.86800000      43.70300000 
C       9.61100000      21.92100000      41.77400000 
O      10.64000000      21.93800000      40.79300000 
H       9.19100000      23.48600000      39.84000000 
H       8.32600000      23.38700000      42.62000000 
H       9.93500000      21.52400000      42.70400000 
H       8.75400000      21.32900000      41.40800000 
H      11.02000000      21.05400000      40.62000000 
N      12.03700000      15.94700000      48.12600000 
C      11.10600000      14.97100000      47.51500000 
C      10.43200000      15.55200000      46.30000000 
O      10.15700000      14.81900000      45.34400000 
C      10.13400000      14.48000000      48.60300000 
C       9.25800000      13.30800000      48.14200000 
C       8.02700000      13.64900000      47.29100000 
O       7.53700000      14.80300000      47.42600000 
O       7.57500000      12.73300000      46.57700000 
H      11.86300000      16.24900000      49.04500000 
H      11.68800000      14.13200000      47.16500000 
H      10.71900000      14.17600000      49.44000000 
H       9.49200000      15.30000000      48.91700000 
H       9.84900000      12.57100000      47.61300000 
H       8.87700000      12.80200000      49.04100000 
N      10.14700000      16.84600000      46.27900000 
C       9.46300000      17.49100000      45.16200000 
C      10.31000000      17.39500000      43.89400000 
O       9.84800000      17.07500000      42.82800000 
C       9.10800000      18.92900000      45.55500000 
C       8.05500000      19.61600000      44.67400000 
O       7.23600000      18.88100000      44.05400000 
O       8.04000000      20.85200000      44.71900000 
H      10.39400000      17.42200000      47.07600000 
H       8.55800000      16.93800000      44.93900000 
H       8.71200000      18.91000000      46.55300000 
H       9.99600000      19.54600000      45.57400000 
N      11.64600000      17.73100000      44.03900000 
C      12.49200000      17.73900000      42.85500000 
C      12.82700000      16.35700000      42.33400000 
O      12.81600000      16.16600000      41.12800000 
C      13.81700000      18.55000000      43.09800000 
C      13.80400000      19.89600000      42.37800000 
C      12.96000000      20.93100000      43.12000000 
C      15.24900000      20.43600000      42.18800000 
H      12.00400000      17.93200000      44.91800000 
H      11.93800000      18.20500000      42.05400000 
H      13.99100000      18.66600000      44.13300000 
H      14.63800000      17.95000000      42.70000000 
H      13.38700000      19.76300000      41.37900000 
H      12.90000000      21.85600000      42.59100000 
H      11.94300000      20.56600000      43.27600000 
H      13.39000000      21.12000000      44.10900000 
H      15.23500000      21.37800000      41.67300000 
H      15.73400000      20.56700000      43.14700000 
H      15.83100000      19.74100000      41.60100000 
N      13.16000000      15.39000000      43.21500000 
C      13.59300000      14.07300000      42.74300000 
C      12.36800000      13.18300000      42.56600000 
O      12.18400000      12.10600000      43.17200000 
C      14.75100000      13.49500000      43.57100000 
C      15.40400000      12.29900000      42.81900000 
C      14.44900000      13.13700000      45.01400000 
C      15.83400000      12.55700000      41.39900000 
H      13.12900000      15.58200000      44.21100000 
H      13.95900000      14.24100000      41.74600000 
H      15.49400000      14.30000000      43.57300000 
H      16.30800000      12.02700000      43.42400000 
H      14.75300000      11.44300000      42.87800000 
H      15.37400000      12.90300000      45.53500000 
H      13.95800000      13.93600000      45.54400000 
H      13.80400000      12.24500000      45.06900000 
H      16.50200000      11.78800000      41.03500000 
H      14.98900000      12.59500000      40.71700000 
H      16.36300000      13.51700000      41.31000000 
N      11.48300000      13.63400000      41.67900000 
C      10.24300000      12.97800000      41.29900000 
C       9.65400000      13.69400000      40.11400000 
O       9.37100000      13.08200000      39.07800000 
C       9.23700000      12.86900000      42.47800000 
C       8.23900000      11.72500000      42.31900000 
C       8.74000000      10.30900000      42.49200000 
O       7.96400000       9.36000000      42.24800000 
N      10.01000000      10.10400000      42.92600000 
H      11.75300000      14.46100000      41.16000000 
H      10.49300000      11.97100000      40.94000000 
H       9.80100000      12.75900000      43.40600000 
H       8.71000000      13.79500000      42.56700000 
H       7.45900000      11.85000000      43.06800000 
H       7.74900000      11.76700000      41.36800000 
H      10.65500000      10.80400000      43.08800000 
H      10.29100000       9.15100000      43.04100000 
N       9.47900000      15.02600000      40.23900000 
C       8.89800000      15.80000000      39.12000000 
C       9.89500000      16.13300000      38.05100000 
O       9.55900000      16.31200000      36.89000000 
C       8.21800000      17.10100000      39.65400000 
C       7.07700000      17.54900000      38.76400000 
C       6.37300000      18.81500000      39.26700000 
O       6.75600000      19.37600000      40.31200000 
O       5.39000000      19.22200000      38.52600000 
H       9.64000000      15.49900000      41.07800000 
H       8.15400000      15.18400000      38.63800000 
H       7.82200000      16.86000000      40.65100000 
H       8.94900000      17.86300000      39.79500000 
H       7.42900000      17.74900000      37.76000000 
H       6.33200000      16.78500000      38.68200000 
N      11.23900000      16.26700000      38.41000000 
C      12.26700000      16.67800000      37.54600000 
C      13.18600000      15.58800000      37.04000000 
O      14.22100000      15.88200000      36.45300000 
H      11.45600000      16.17300000      39.41000000 
H      11.83000000      17.16200000      36.66900000 
H      12.88400000      17.41000000      38.03400000 
N      12.80000000      14.32700000      37.23600000 
C      13.64800000      13.18300000      36.88300000 
C      13.84100000      13.03000000      35.37300000 
O      14.93700000      12.67100000      34.92400000 
C      13.02700000      11.92200000      37.50500000 
O      13.82900000      10.81800000      37.13100000 
H      11.97500000      14.14300000      37.72300000 
H      14.64000000      13.31800000      37.28000000 
H      12.98900000      12.05600000      38.56300000 
H      12.00200000      11.80600000      37.12900000 
H      13.47400000       9.98700000      37.44000000 
N      12.78800000      13.25800000      34.57200000 
C      12.85800000      13.09500000      33.13200000 
C      13.53600000      14.33900000      32.53700000 
O      12.90100000      15.39800000      32.35300000 
C      11.49600000      12.93000000      32.47600000 
C      10.66600000      11.70500000      32.99200000 
C      11.33600000      10.34700000      32.74700000 
N      10.37900000       9.27900000      32.37900000 
C       9.54700000       8.71200000      33.22600000 
N       8.63400000       7.82000000      32.76100000 
N       9.52700000       8.94200000      34.52300000 
H      11.93700000      13.60800000      34.97100000 
H      13.48600000      12.23600000      32.92100000 
H      10.90300000      13.82100000      32.65500000 
H      11.62900000      12.83200000      31.42600000 
H      10.41200000      11.83100000      34.01500000 
H       9.72500000      11.72800000      32.41700000 
H      12.01200000      10.40700000      31.87700000 
H      11.94400000      10.05300000      33.57900000 
H      10.33700000       9.04200000      31.45300000 
H       8.59400000       7.63900000      31.75300000 
H       8.01400000       7.36300000      33.31700000 
H      10.20900000       9.56900000      34.94300000 
H       8.88900000       8.52600000      35.13300000 
N      13.04600000      20.56500000      32.17900000 
C      13.99400000      21.23300000      33.07200000 
C      15.30200000      21.48200000      32.28700000 
O      15.80900000      20.48400000      31.70200000 
C      14.28300000      20.36100000      34.29800000 
C      13.13900000      20.29700000      35.26700000 
N      13.13800000      21.02400000      36.45200000 
C      11.95800000      19.63600000      35.21700000 
C      11.95600000      20.75800000      37.03600000 
N      11.20900000      19.95200000      36.37200000 
H      13.37400000      19.70800000      31.76200000 
H      13.55100000      22.15700000      33.36900000 
H      14.58000000      19.37900000      33.98500000 
H      15.16900000      20.79500000      34.83600000 
H      13.87000000      21.59200000      36.79200000 
H      11.57500000      18.98700000      34.48000000 
H      11.68200000      21.20100000      38.01600000 
H       7.84757720      23.71482401      40.56213735 
H      10.61960936      24.99027889      42.10245849 
H      12.86528894      15.59596844      48.15272611 
H      14.50432088      14.31022843      32.28895390 
H      12.29936188      20.35562190      32.63582855 
H      15.70321810      22.39762639      32.26145882 
