 292 
 
N                33.1487172018       49.8094474291       39.6568326091
C                33.8465347946       49.9303794636       40.9168675317
C                35.3342465128       49.6526810991       40.7507387899
O                36.1741428294       50.1473263871       41.5005326026
C                33.2179986142       49.0523193076       42.0113029365
C                33.5448600197       47.5736267870       41.7849002916
C                31.7192293654       49.3316564170       42.1004814506
C                32.8244866890       46.6521543077       42.7601924308
H                32.6461100442       48.9562822645       39.4614612917
H                33.7546715165       50.9829148946       41.2240644891
H                33.6797303126       49.3706938777       42.9524738885
H                33.2837645516       47.2895021835       40.7652459341
H                34.6242229429       47.4430522907       41.8943698916
H                31.3245639495       48.9736130042       43.0463679474
H                31.5509522985       50.4048966253       42.0410034099
H                31.1841767137       48.8442991237       41.2896078937
H                33.2025577048       45.6382071519       42.6511740656
H                32.9822385109       46.9880925172       43.7831652175
H                31.7598519680       46.6466925236       42.5463419042
N                42.4036252304       57.2950859899       45.5327510576
C                43.1043522746       57.1354502428       46.7949461046
C                42.1936729547       56.8446157621       47.9896044179
O                42.6449115255       56.3782629354       49.0234575521
C                43.7726620738       58.4996872001       47.0078574427
C                42.7429580826       59.4594663113       46.4143047380
C                42.2124351063       58.6999582152       45.1956129583
H                43.8109194592       56.3037540254       46.7309292097
H                43.9747918415       58.6898181007       48.0590442605
H                44.7073486804       58.5520968550       46.4517431235
H                41.9433255887       59.6373376670       47.1314969795
H                43.1784641097       60.4161036442       46.1379333483
H                41.1639466692       58.9239234660       44.9879812211
H                42.7953781113       58.9481088033       44.3035543856
N                40.9204260639       57.2711144859       47.8639948252
C                39.9683948927       57.0349966998       48.9236047985
C                39.4006338579       55.6140020189       48.8468396944
O                39.3470485351       55.0009333488       47.7923649068
H                40.5459827788       57.3808888934       46.9335605741
H                40.4932658091       57.1730164174       49.8710806517
H                39.1509491587       57.7549733007       48.8380479189
N                38.9993652422       55.1183945182       50.0257030378
C                38.3991061921       53.8108177080       50.1701967789
C                36.9594907560       54.0104543321       50.6423118807
O                36.6606123047       54.8749898258       51.4533320879
C                39.1975046768       52.9486949957       51.1716089815
C                38.5698283279       51.5651979107       51.3007424264
C                40.6503181754       52.8298997032       50.7164152126
H                38.9852719491       55.7019325872       50.8488997298
H                38.4212320535       53.3476340008       49.1792608831
H                39.1609108684       53.4495944327       52.1451223971
H                39.1657313677       50.9408654873       51.9599330482
H                37.5655763582       51.6182239933       51.7113972412
H                38.5227124981       51.0746195127       50.3316578225
H                41.2223787482       52.2716815521       51.4519757058
H                40.7045624196       52.3070763637       49.7641849534
H                41.1112478976       53.8062616396       50.5898899608
N                36.0432196431       53.2231464671       50.0546627227
C                34.6696863156       53.2487493893       50.5256591579
C                34.7023064918       52.9835265323       52.0363563539
O                35.4778985560       52.1884328068       52.5380071523
C                33.8255530438       52.2060457450       49.7782209219
C                32.4016005502       52.1673910901       50.3248815891
C                33.8002075844       52.4991592028       48.2799565535
H                36.3445055988       52.4146978092       49.5324848527
H                34.2744047839       54.2557748442       50.3475937714
H                34.2847588250       51.2294024776       49.9537510287
H                31.8110495435       51.4330750514       49.7828628640
H                32.3820902534       51.8672857987       51.3702004728
H                31.9178143366       53.1360219095       50.2260063115
H                33.2055180556       51.7395085362       47.7796709718
H                33.3504955659       53.4709904632       48.0971542925
H                34.7970219172       52.4901431167       47.8488559503
N                33.8705684111       53.7471545660       52.7720339597
C                33.7968456854       53.5814905225       54.2073335333
C                33.2267544217       54.8048583114       54.9020345835
O                32.4345145403       54.6910668883       55.8319882424
H                33.1075171383       54.2209558549       52.3126814370
H                33.2026701245       52.7066579200       54.4966529477
H                34.8163136893       53.4059465079       54.5686467251
N                33.6334651180       55.9741717832       54.4053346082
C                33.3448010149       57.2704281457       54.9994519021
C                31.9349388402       57.3629675711       55.5910637922
O                31.7735619220       57.7844621593       56.7269584214
C                33.6328318323       58.4053527032       53.9851416202
C                33.1152393538       59.7331440198       54.5543798384
C                33.0511456621       58.1412339695       52.5967916938
C                33.6627768571       60.9513837773       53.8210983019
H                34.3854001184       55.9601414221       53.7255397886
H                34.0058090106       57.4166096643       55.8672774276
H                34.7240456109       58.4649163217       53.8993822757
H                32.0249559681       59.7369883021       54.4976698586
H                33.3847994597       59.7971298922       55.6108020724
H                33.5225729047       58.8087243674       51.8818173655
H                33.2488634211       57.1261111930       52.2649209860
H                31.9791631115       58.3298730337       52.5742727211
H                33.2760054919       61.8587658270       54.2775536200
H                34.7480997979       60.9743500062       53.8752430597
H                33.3649806269       60.9373716668       52.7774465789
N                30.9066715526       57.0106690726       54.8008191182
C                29.5385702786       57.2293010265       55.2151972018
C                28.8996367180       56.0614549411       55.9893619125
O                27.6891673324       56.0206662656       56.1619867513
C                28.6514140361       57.6197823054       54.0253977771
C                28.9769195718       58.9800112941       53.5109581051
N                30.0182921921       59.1977747814       52.6551724477
C                28.3682607390       60.1736254686       53.7941188571
C                30.0376139922       60.4841782244       52.4287127794
N                29.0551375415       61.1245925468       53.0951682707
H                31.0645203616       56.7373257721       53.8430647912
H                29.5592361746       58.0533939511       55.9449756998
H                28.7754944109       56.8799325955       53.2318815998
H                27.6168655594       57.5892263850       54.3691290104
H                27.5269053376       60.4017904383       54.4140635510
H                30.7442666562       60.9771098181       51.7926402296
H                28.8541868927       62.1111635462       53.0825562327
N                29.7533765057       55.1715147306       56.5053348002
C                29.3195437723       54.0934375154       57.3589864744
C                29.3726815963       52.7087763081       56.7093534130
O                28.4473943323       51.9176598805       56.8325152674
H                30.7465996617       55.2475502549       56.3190234141
H                29.9425668745       54.0699044043       58.2580080848
H                28.2790574618       54.2814486978       57.6378919259
N                30.4935722204       52.4333735884       56.0279353660
C                30.6813197362       51.1495428392       55.3890035818
C                31.9881912629       50.4976774506       55.8308592681
O                32.9287540186       51.1323563349       56.2951618850
C                30.6858312892       51.2501444796       53.8607531202
C                30.2368561666       49.9293052655       53.1381015023
O                30.1111718713       50.0071209430       51.9098996067
O                30.0508280248       48.9181637798       53.8482343761
H                31.2785986986       53.0800655316       56.0367652988
H                29.8370294946       50.5183445022       55.6903344943
H                30.0046389612       52.0364796844       53.5316881396
H                31.6861514036       51.4831819021       53.4865866129
N                31.9968945486       49.1698607033       55.6563427497
C                33.2264122486       48.4315226467       55.8372928059
C                34.2585645095       48.8403316320       54.7788368022
O                33.9598704872       48.8666269958       53.5809776452
C                32.9672076899       46.9300816730       55.6941762861
O                34.2099427217       46.2623384227       55.7288122040
H                31.2693877660       48.8155893410       55.0121633690
H                33.6056504440       48.6669729643       56.8352793499
H                32.3225272972       46.5977710887       56.5129800506
H                32.4539644620       46.7524276469       54.7392310964
H                34.0466882292       45.3197743339       55.8737620409
N                35.4928235115       49.1114112704       55.1977079715
C                36.5078579344       49.5291512117       54.2411540926
C                36.8619736478       48.4085752088       53.2670473619
O                37.4344006595       48.6184931564       52.2096375460
C                37.7106170284       49.9083151516       55.1109509727
C                37.5429567476       49.0131775009       56.3347987025
C                36.0300404532       49.0050000241       56.5478864343
H                36.1454009749       50.3696717475       53.6403544541
H                38.6473461238       49.7446016837       54.5846544781
H                37.6401132221       50.9587982158       55.3883359921
H                37.8986481953       48.0061882100       56.1151332436
H                38.0698275673       49.3979678069       57.2028576351
H                35.6898905364       48.0857458753       57.0239084850
H                35.7030062121       49.8689442937       57.1355360125
N                36.5434282322       47.1696147158       53.6823501443
C                36.7422151127       46.0236899764       52.8356460796
C                35.8419683318       46.0238199461       51.6089758151
O                35.9821106921       45.1316289020       50.7637105926
C                36.5292988248       44.7314122439       53.6411616839
C                37.5709075229       44.6042050120       54.7185852848
C                38.7627201780       43.9377278357       54.4618487342
C                37.3844019554       45.1704679759       55.9716319584
C                39.7388303360       43.8223448546       55.4300865536
C                38.3600658681       45.0718274650       56.9477881773
C                39.5438822700       44.3915988324       56.6851816524
O                40.5255077926       44.2545837755       57.6132572168
H                35.9486043574       47.0343972202       54.4891969832
H                37.7724174944       46.0525596336       52.4538625324
H                35.5267210346       44.7585270584       54.0686652727
H                36.5855574437       43.8829910074       52.9580900804
H                38.9242039848       43.4937373348       53.4921373593
H                36.4612209621       45.6819540499       56.1951948658
H                40.6576169014       43.2937037429       55.2348562995
H                38.1958500009       45.5214720086       57.9163544166
H                40.2581176736       44.6752833387       58.4421517458
N                34.9462119982       46.9912640689       51.4697831413
C                34.0437354619       47.0434208317       50.3361069348
C                34.6560241034       46.4397259589       49.0666846729
O                34.1048203804       45.5213155114       48.4742911515
C                33.6354982336       48.4967658565       50.0511349436
C                32.8365899680       48.5399641875       48.7772386521
C                33.4116134855       48.9073435679       47.5672107325
C                31.5112511300       48.1257794713       48.7859208182
C                32.6961118549       48.8333509344       46.3877921566
C                30.7855189499       48.0519496748       47.6133260840
C                31.3784278329       48.3883893055       46.4009151056
O                30.7095619105       48.2968173636       45.2232619221
H                34.7552989390       47.6662943226       52.2081589829
H                33.1433660587       46.4518397556       50.5550941012
H                33.0445127909       48.8681979899       50.8923927166
H                34.5391717647       49.1031290745       49.9705993261
H                34.4295003106       49.2653890938       47.5359757999
H                31.0388787778       47.8780736937       49.7257994817
H                33.1497350461       49.1173171118       45.4516471144
H                29.7567899805       47.7236887331       47.6438652796
H                29.7878556338       48.0509294820       45.3848403095
N                35.7611716932       47.0327462514       48.5928975533
C                36.2510161528       46.7005806737       47.2662680079
C                36.5907098014       45.2136701345       47.1750446682
O                36.2298668134       44.5233576174       46.2331676080
C                37.4958793088       47.5268158463       46.9140075023
C                37.1461449820       48.9234175190       46.4733880310
C                36.4372625276       49.1143858736       45.2918211141
C                37.5409165771       50.0346199097       47.2060488414
C                36.1287620550       50.3880967899       44.8514507214
C                37.2465972119       51.3129506594       46.7579614986
C                36.5391567865       51.4918822448       45.5816841476
H                36.1561287870       47.8384392177       49.0541318168
H                35.4510980014       46.8823077338       46.5363763162
H                38.1720329949       47.5526129773       47.7689551911
H                38.0128561520       47.0255274478       46.0923290042
H                36.1398246515       48.2608914719       44.7000170930
H                38.1107562758       49.9040694915       48.1144150666
H                35.5930090220       50.5268802096       43.9241274571
H                37.5907729341       52.1803845084       47.3033778538
H                36.3195350744       52.4866273969       45.2208791623
N                37.3696270040       44.7600691384       48.1628891426
C                37.8167834853       43.3800433959       48.2088813685
C                36.6101860218       42.4380913967       48.2176122072
O                36.5208510067       41.4669091846       47.4801251018
C                38.6860132163       43.1769464062       49.4512255409
C                39.1859805666       41.7374534201       49.6234304143
C                40.1423240285       41.3385123816       48.5022700516
C                39.8669806865       41.5994584034       50.9842741278
H                37.5009348856       45.3221904750       48.9920079761
H                38.3820035890       43.1726189513       47.2940155870
H                39.5455817041       43.8462920865       49.3834880763
H                38.0945293296       43.4558976132       50.3263395759
H                38.3254016929       41.0629037351       49.5900118836
H                40.5333248977       40.3405379496       48.6825239133
H                39.6269236546       41.3224539914       47.5451617604
H                40.9776289829       42.0319746122       48.4458180337
H                40.2768917064       40.6004282765       51.1028242874
H                40.6825331221       42.3126698603       51.0766945431
H                39.1554476083       41.7704624782       51.7890154784
N                35.6800387368       42.7725098163       49.1169369187
C                34.4560894352       42.0176778604       49.2785028734
C                33.7954348623       41.8053884858       47.9200949374
O                33.3902584914       40.7088369821       47.5538617157
C                33.4909489941       42.7664891754       50.2336330998
O                34.1186569688       43.0466860864       51.4606728747
C                32.2594534090       41.9196437369       50.5289710291
H                35.7894783971       43.6324980980       49.6412287269
H                34.6870006165       41.0300861587       49.7005709318
H                33.1929610053       43.7028801675       49.7381221613
H                34.7863645200       43.7360300612       51.3261693603
H                31.5569660572       42.5038707280       51.1151987670
H                31.7874921351       41.6003340741       49.6053870317
H                32.5543495037       41.0468736572       51.1053758575
N                33.6679359139       42.9204327343       47.1947013245
C                32.9670528588       42.9307291326       45.9317957529
C                33.7412147382       42.1861177049       44.8409604612
O                33.1671643156       41.5032347755       43.9932958046
C                32.6692754277       44.3717343683       45.4993121973
O                31.5591657397       44.3225832199       44.6417393894
H                33.9853553303       43.8126383047       47.5605389617
H                32.0033667705       42.4140413194       46.0353387335
H                32.4430339815       44.9687228425       46.3954867818
H                33.5503976341       44.8032032703       45.0083167839
H                31.4359038857       45.1780664026       44.2141265077
N                28.0603008786       40.7057780115       56.1177152087
C                29.0073035997       40.0083457579       55.2636276347
C                29.0047399850       38.5110620218       55.5698246629
O                29.0784937849       37.6682289835       54.6802534018
C                30.4120360393       40.6122812698       55.4429272737
C                30.3367043829       42.0961372570       55.1997357572
C                30.1385181744       42.5948181193       53.9173010548
C                30.3536594796       42.9849345033       56.2650420024
C                29.9341222616       43.9416068485       53.7015906696
C                30.1500298707       44.3362724398       56.0612566186
C                29.9137079583       44.8187649953       54.7813603772
O                29.6629423486       46.1384151007       54.5487838286
H                28.2582816164       41.6880158418       56.3174865494
H                28.7034156669       40.1274142196       54.2130168400
H                30.7710560146       40.4110394221       56.4525358408
H                31.0846249931       40.1323777263       54.7318531277
H                30.1165056043       41.9174389169       53.0780451591
H                30.5075358996       42.6188236784       57.2688282314
H                29.7446582634       44.3227990469       52.7101716085
H                30.1249369420       45.0047339854       56.9084544912
H                29.5339071581       46.5903401281       55.3942880573
H                32.5288982420       50.4588833769       39.5931348322
H                35.6520245224       49.0533846255       40.0159865369
H                42.6924068012       56.6746357093       44.9482455797
H                34.7386642950       42.2477907375       44.8050324973
H                27.2457327236       40.6943198017       55.7351613820
H                28.9417654195       38.1943685439       56.5162597875
