 257 
 
N               197.4704719281       64.8900558261      106.6265673580
C               196.0909315062       64.5841080630      106.9589019343
C               195.9471139993       63.7389393385      108.2210330435
O               194.9167779309       63.1087587506      108.4326173486
C               195.3308330257       63.8904879947      105.8151174610
C               195.3340102979       64.6618522067      104.4938691959
C               194.4202883303       63.9522295498      103.4939533666
C               194.8574477316       66.0961573778      104.6922761004
H               197.6885863159       65.8779041383      106.5451723920
H               195.6102729826       65.5431173001      107.1799803327
H               195.7739457253       62.9082238120      105.6674642250
H               194.3023615868       63.7593040760      106.1530352332
H               196.3501671081       64.6863066851      104.0900637931
H               194.4095593243       64.4958770058      102.5540104335
H               194.7607469641       62.9420708672      103.2875761243
H               193.4031431472       63.9079223979      103.8755525068
H               194.7797360537       66.5896704258      103.7307165117
H               193.8815078425       66.1039507412      105.1705388109
H               195.5529529892       66.6715365043      105.2978975995
N               192.7966309558       61.1312001209      108.3587447211
C               193.1425807597       59.7426033789      108.1330741775
C               192.8347082338       58.8870400807      109.3577511300
O               192.2878531409       57.7901419194      109.2239025814
C               194.6121047831       59.6054462084      107.7345096677
C               194.8264874704       59.9559354247      106.2622081729
C               196.3149240320       59.9964494566      105.9216436324
C               196.5331470780       60.2826155010      104.4384960791
N               197.9383408146       60.7063509724      104.2117671960
H               193.5493949058       61.8111362442      108.3913427084
H               192.5010376539       59.3508462901      107.3317999245
H               195.2034352356       60.2617375555      108.3754572418
H               194.9300772545       58.5779375350      107.9147817049
H               194.3278239183       59.2084277546      105.6446244386
H               194.3799395606       60.9286996471      106.0557602771
H               196.7877695402       60.7867002366      106.5071852507
H               196.7728180488       59.0463388560      106.1959174953
H               196.3169676192       59.4003100524      103.8355171293
H               195.8784949955       61.0943526850      104.1179914343
H               198.0925239953       60.9750897644      103.2317154106
H               198.1452709330       61.5279271543      104.8313027630
H               198.5869289225       59.9494576533      104.4628098635
N               189.1459660605       58.2999601033      109.3953085584
C               188.7847694609       57.3733502640      108.3424591637
C               189.1286040888       55.9376131996      108.7442715087
O               188.3529535555       55.0075564506      108.5436427242
C               189.5125429405       57.7371407195      107.0492417144
C               189.0247672079       59.0365709684      106.3938720133
C               189.9248053786       59.3410334030      105.1984748721
C               187.5707645999       58.9392508195      105.9400442086
H               189.7785637151       59.0614043324      109.1662446559
H               187.6970233125       57.3942183203      108.1988077540
H               190.5756805031       57.8197696739      107.2833507120
H               189.3921333278       56.9142597187      106.3430494297
H               189.1145441008       59.8502574031      107.1177923225
H               189.5583579503       60.2132754678      104.6661270936
H               190.9417243109       59.5348274993      105.5291842027
H               189.9325420352       58.4941657059      104.5165982037
H               187.2848909713       59.8347689928      105.3947584719
H               187.4347539989       58.0813655697      105.2861291971
H               186.8980036309       58.8353829790      106.7862591264
N               190.3340666279       55.7826958529      109.2906174343
C               190.8187567524       54.4850426813      109.7116490459
C               189.8381516987       53.8821767971      110.7153118554
O               189.3909824702       52.7446749912      110.5909690913
C               192.2292542491       54.6124756273      110.3278255991
O               193.1491040649       55.1176422996      109.3923824940
C               192.7312877309       53.2504458510      110.7929051293
H               190.9321773314       56.5900857452      109.4269973207
H               190.8615209519       53.8126009954      108.8430280117
H               192.1539088883       55.2920660237      111.1915742339
H               192.9101298974       56.0342428778      109.1739944664
H               193.7177458003       53.3609944514      111.2322651443
H               192.0507014227       52.8280377489      111.5258012051
H               192.7991801437       52.5771282687      109.9429347149
N               186.8112952234       54.4975021216      111.1067402366
C               185.5872401821       54.2041932572      110.3985912248
C               185.6786431106       52.9947764825      109.4552148300
O               184.6762893557       52.6017079444      108.8680276967
C               185.1544737047       55.4276639185      109.5989705398
H               187.3210346129       55.3252377074      110.8195776529
H               184.8177580122       53.9339424468      111.1358034518
H               184.2428385851       55.1968992266      109.0554812707
H               184.9863939671       56.2692514017      110.2644829471
H               185.9411509085       55.6791868547      108.8918101148
N               186.8775041425       52.4262438347      109.3169089048
C               187.0770468338       51.2422206718      108.5213338395
C               187.3292516644       51.5197433511      107.0389672985
O               187.1057247024       50.6671541175      106.1883696924
H               187.6761157464       52.7646556691      109.8396719796
H               187.9320867089       50.6927324549      108.9203157426
H               186.1845612425       50.6110099974      108.5802197319
N               187.8034736002       52.7334397854      106.7513937874
C               188.0072543250       53.1562647842      105.3830344801
C               189.4328326573       52.8103113764      104.9329860327
O               190.4193470714       53.1392887132      105.5677923103
C               187.7620245976       54.6672445102      105.2715335042
C               188.1787177982       55.1975925755      103.9042339144
C               186.2929188895       54.9735280941      105.5454247959
H               187.9891586127       53.4050246895      107.4901358909
H               187.2882379648       52.6022130721      104.7684465612
H               188.3751574905       55.1355447122      106.0458700236
H               187.9381639641       56.2552322545      103.8399399959
H               189.2482392664       55.0831090220      103.7428679871
H               187.6367684838       54.6705868569      103.1223301319
H               186.1291433603       56.0474015591      105.5612093788
H               185.6635208358       54.5392229931      104.7721577796
H               185.9872824162       54.5616774185      106.5043513363
N               189.4903882304       52.1929107736      103.7300232287
C               190.7338558371       51.6560309285      103.2117025378
C               191.3439447739       52.5175484870      102.1006901573
O               192.5148967174       52.4059388131      101.7716083172
C               190.4940854712       50.2415451797      102.6299992393
O               189.6070861098       49.5872802737      103.5151928488
C               191.8051766687       49.4834993829      102.4603418480
H               188.6588170940       51.7007449493      103.4338790876
H               191.4508796125       51.5945042015      104.0382683929
H               190.0014796198       50.3559958401      101.6475057095
H               189.5760897999       48.6485791210      103.2967076730
H               191.6408414387       48.5602184354      101.9103674373
H               192.5222171433       50.0940749044      101.9195843554
H               192.2151609966       49.2475441000      103.4393312300
N               190.4791156776       53.3022577796      101.4414747958
C               190.9161443884       54.0849652958      100.3063193686
C               191.7237295610       55.3178729681      100.7288122309
O               191.4079927598       56.0105201968      101.6842078381
H               189.5782286525       53.4922637785      101.8533581342
H               191.5279866343       53.4408934152       99.6714488969
H               190.0336359091       54.4209815369       99.7599590836
N               192.7582942663       55.6027692245       99.9298961388
C               193.5988012081       56.7548589503      100.1822926169
C               192.7248082146       58.0208183186      100.1488910726
O               191.7816419378       58.1321905629       99.3822886631
C               194.6928851255       56.8301832983       99.0986164895
O               195.1999041560       55.5160617855       98.9565254290
C               195.7903217671       57.8181371262       99.4839589235
H               193.1175209882       54.9303412236       99.2686409822
H               194.0629486074       56.6415452805      101.1700130113
H               194.2159615933       57.1407982211       98.1546018156
H               195.9873692051       55.5368310108       98.3997662443
H               196.5356044970       57.8633417778       98.6932785974
H               195.3856570886       58.8159854374       99.6274891890
H               196.2735109778       57.4780887737      100.3964577101
N               193.1246137795       58.9758861530      100.9955211041
C               192.4605058974       60.2501026614      101.1753898923
C               193.2899836983       61.3894266207      100.5595668028
O               194.5036633177       61.3393370344      100.4574103413
C               192.2867421534       60.5216293948      102.6686988056
H               193.9220290840       58.8049422760      101.5888633199
H               191.4959295836       60.1887128831      100.6643716260
H               191.7337902893       61.4413627449      102.8205433918
H               191.7383084561       59.7036981709      103.1261339840
H               193.2602220437       60.6104426152      103.1436169556
N               192.5432554254       62.4529048788      100.2232599572
C               193.0338288230       63.6287637941       99.5322919291
C               192.1180113883       64.8082325269       99.8836896220
O               191.0252649199       64.6074163245      100.3996903491
C               193.0184931080       63.3753339326       98.0025828602
O               191.7353603303       63.0911524465       97.5149938830
H               191.5335515584       62.3630411940      100.2461496472
H               194.0647025380       63.8142947003       99.8463134794
H               193.3539921059       64.2666874326       97.4680880348
H               193.7078302241       62.5472429930       97.7935894311
H               191.4017067958       62.2773687449       97.9282657670
N               187.3070154639       65.7928161933      102.0686596736
C               188.2597009787       64.7056454543      101.9765495823
C               187.6745854011       63.7152829698      100.9650915316
O               186.5398929662       63.2589584101      101.0983322572
C               188.5394293555       64.0589451134      103.3356458976
C               189.5210558021       62.9076075202      103.1422383333
C               189.1359709550       65.0955214416      104.2811517772
H               186.4380826299       65.6344485862      102.5724151154
H               189.1876725479       65.1188551321      101.5746119739
H               187.5978273525       63.6774303049      103.7445511768
H               189.8046809322       62.4952072300      104.1066273399
H               189.0872050325       62.1139283966      102.5379723310
H               190.4093557140       63.2801782689      102.6368080355
H               189.2785202886       64.6641164155      105.2668807783
H               190.0983908183       65.4231075467      103.8978957414
H               188.4848035332       65.9596555709      104.3646550459
N               188.4545191417       63.4831343001       99.9126089197
C               188.0875699033       62.6239095150       98.8059536964
C               188.8088145310       61.2856097757       98.9854783457
O               190.0251888831       61.2319942689       99.1386324790
C               188.4884279441       63.2653430549       97.4791484152
C               188.0540924715       62.4261789578       96.2798649590
C               188.6336040051       63.0308616533       95.0057025720
C               188.0401037583       62.4197646271       93.7447263753
N               188.5651129615       63.1464073154       92.5649687096
H               189.4085262038       63.8378274559       99.9219070008
H               187.0076136939       62.4630303825       98.8377828581
H               188.0229053481       64.2490598391       97.4139022131
H               189.5708697079       63.3944983674       97.4551310030
H               188.3951341481       61.3946988362       96.3831941890
H               186.9636772958       62.3911702493       96.2243001130
H               188.4229901653       64.1006156687       95.0005319275
H               189.7160506418       62.9009227376       95.0164550238
H               188.2574052975       61.3521454861       93.6835254475
H               186.9546053677       62.5288190684       93.7588143714
H               188.0711526635       62.8694210830       91.7146016346
H               188.3961165317       64.2432892554       92.7429348833
H               189.5682264223       62.9794580592       92.4549749063
N               187.9935228924       60.2341369470       99.0109508048
C               188.4021309570       58.8554848606       99.2069699694
C               187.8115906216       58.0983987794       98.0188018065
O               186.6237564029       57.7976408028       97.9834488684
C               187.8205314822       58.3029815770      100.5204070708
C               188.1646347769       56.8254599931      100.6725182941
C               188.3321752581       59.0990922001      101.7138084041
H               187.0075043984       60.3794310435       98.8114078805
H               189.4959452647       58.8113219606       99.2163059431
H               186.7314961795       58.4048592192      100.4470833109
H               187.6438201169       56.4196403870      101.5330185571
H               187.8560050284       56.2647454243       99.7925300316
H               189.2334494938       56.6948213346      100.8237131644
H               187.8741415786       58.7364355002      102.6288887432
H               189.4102958124       58.9849537222      101.7948148465
H               188.0918894125       60.1532751903      101.5986408396
N               188.6570552190       57.8397540882       97.0137707352
C               188.1917274397       57.2522667707       95.7691388029
C               187.1342166693       58.1668035535       95.1318609345
O               187.4475312558       59.2404390550       94.6361032224
H               189.6223953852       58.1228798002       97.0899532916
H               189.0338579997       57.1677956343       95.0854294123
H               187.7598647993       56.2656499846       95.9546820184
N               183.8192193736       63.6537012804      101.9699394945
C               183.4300176534       63.9801959348      103.3277341752
C               183.6147970987       65.4830910122      103.5467776339
O               184.6877834279       66.0150846380      103.2805579069
C               184.3139887899       63.2300616621      104.3396314629
C               184.0749550697       61.7495022078      104.2957358302
C               184.7348610904       60.9438622717      103.3733146332
C               183.1733214051       61.1631988718      105.1743859226
C               184.5021367028       59.5817382306      103.3286116075
C               182.9480379304       59.8001171344      105.1509666949
C               183.6148706818       59.0017577738      104.2293030471
O               183.3899781211       57.6559876254      104.1601406425
H               184.8094987918       63.7402686265      101.7452308172
H               182.3825253604       63.7115737188      103.4672134738
H               185.3575440239       63.4543749312      104.1105455181
H               184.0728326150       63.6204243139      105.3275796923
H               185.4415993322       61.3832326398      102.6851757134
H               182.6404790428       61.7787705931      105.8838907516
H               185.0109137390       58.9571640252      102.6110670513
H               182.2569812898       59.3597286855      105.8537673712
H               182.9433859543       57.3566381538      104.9694446595
H               198.0132848311       64.5608674973      107.2645244071
H               196.6960714858       63.6963231241      108.8822792470
H               192.2532517394       61.4162599710      107.7003528096
H               193.0764403665       59.2155788920      110.2707833449
H               188.4041997495       58.7004320307      109.7105941038
H               189.5395664960       54.4170836854      111.5057051105
H               186.6319469734       54.6148540503      111.9808470550
H               192.4124496738       65.7444003294       99.6916064587
H               187.6895615349       66.4930277085      102.4850277050
H               186.1741718972       57.8872843752       95.1183307947
H               183.6020857084       62.7984840846      101.7925796357
H               182.8607782427       66.0322880861      103.9071082306
