 443 
 
N               145.9622501810       72.6016507728      112.4791876633
C               147.2625775697       73.1697961252      112.1786280999
C               148.0155010225       72.2718669928      111.2019825198
O               148.6304390495       72.7178666089      110.2326614730
C               148.0924265375       73.3288580920      113.4541861348
C               147.7117994314       74.5961112767      114.2132560323
C               148.1332298867       75.8316346092      113.3546417407
O               149.3402174041       76.1445684505      113.3912965702
O               147.2387877492       76.3797000755      112.6791475555
H               145.7245413527       72.4199993181      113.4500530648
H               147.1371916671       74.1539321165      111.7055895670
H               147.9547931281       72.4376701664      114.0705871716
H               149.1480525415       73.4089870711      113.1820518062
H               146.6380724614       74.6329405760      114.4000353762
H               148.2556985451       74.6373168410      115.1574835550
N               148.0025744227       70.9750693575      111.4988045201
C               148.6545711590       70.0067770577      110.6364753175
C               148.0537709022       70.1104634024      109.2287192986
O               148.7585608102       70.1891739941      108.2319947939
C               148.5390790821       68.5974646918      111.2376656994
C               149.4458640705       68.5269258592      112.4737829984
C               148.8965695736       67.5399726564      110.1965190462
C               149.2728275789       67.2611820804      113.3015539784
H               147.5356694644       70.6502125787      112.3416403278
H               149.7172562776       70.2717031752      110.5376970392
H               147.4970257850       68.4558489373      111.5400700794
H               150.4866092587       68.6059866870      112.1530555715
H               149.2289762393       69.3845521497      113.1135266650
H               148.8078664029       66.5467283676      110.6242446152
H               148.2255347238       67.6056391420      109.3445028116
H               149.9129586467       67.6821687828      109.8406885219
H               149.9711113112       67.2779236494      114.1338025974
H               148.2634877523       67.2055189400      113.7016183872
H               149.4692313713       66.3673141572      112.7175010478
N               146.7228187990       70.1115140052      109.2058776122
C               145.9552417460       70.2043941655      107.9815895051
C               146.4698232209       71.3880522686      107.1561172262
O               146.8177158671       71.2414098166      105.9954304555
C               144.4665976048       70.3184698962      108.3234234837
C               143.5761133119       70.1200045969      107.1020369575
O               143.7691755204       70.6918343800      106.0477792420
N               142.5016194088       69.3271733270      107.3104577059
H               146.1984088013       69.9809073289      110.0673299876
H               146.1291602283       69.3041546915      107.3737131980
H               144.2323169007       69.5837399558      109.0936154300
H               144.2817842955       71.3195050293      108.7207079731
H               141.9549695240       69.0597816144      106.5037497949
H               142.4543617306       68.6735809540      108.0768897882
N               146.5589344272       72.5420691429      107.8191020412
C               147.0296204524       73.7456819218      107.1619327269
C               148.3898011320       73.4866791668      106.5133621518
O               148.6250537546       73.8193890088      105.3576802125
C               147.1520426129       74.9271665855      108.1340799705
C               145.8729682427       75.7545771284      108.1701659373
O               145.7860745822       76.8359589772      107.6092171024
N               144.8586198623       75.2068424104      108.8473652638
H               146.2432661120       72.6032995816      108.7790277879
H               146.3269999882       74.0012170122      106.3546562785
H               147.4027162298       74.5669046437      109.1324588669
H               147.9496253832       75.5890724329      107.7937310149
H               143.9798838883       75.6971762101      108.8735180592
H               144.9632038036       74.3427222057      109.3569841173
N               149.3057522269       72.9026251561      107.2912465031
C               150.6230979657       72.6265027970      106.7474490876
C               150.4686379885       71.8269706573      105.4419891659
O               151.1117423318       72.1216511815      104.4391468501
C               151.4857853236       71.8393465419      107.7408230262
C               152.1505571881       72.7484598606      108.7649825724
O               153.1353194839       73.4173148167      108.4867417985
N               151.6086240543       72.7290935379      109.9897042231
H               149.1306254889       72.7506158260      108.2768010362
H               151.1218797726       73.5702845702      106.4855638486
H               150.8700264127       71.0842728604      108.2272968809
H               152.2935347603       71.3497938009      107.1934275655
H               152.0082127058       73.3176732206      110.7054749909
H               150.6682892689       72.3953174399      110.1475853477
N               149.6447673283       70.7868645080      105.4964137006
C               149.4713599598       69.9100185237      104.3558263627
C               148.8117918904       70.6110647201      103.1619882895
O               149.1065707468       70.2988106370      102.0100532516
C               148.6758353250       68.6721309636      104.7724490381
C               149.4192773288       67.7975195575      105.7930353638
C               148.4728875657       66.7426821658      106.3634766129
C               150.6274953602       67.1135039390      105.1609607767
H               149.1261099650       70.5789306994      106.3453098708
H               150.4650179516       69.6148795621      103.9967183826
H               147.7323770169       69.0156362374      105.1994381030
H               148.4584061804       68.0845153784      103.8797029409
H               149.7536827632       68.4319157500      106.6183565360
H               148.9639241053       66.1843949824      107.1558356102
H               147.5821034601       67.2099316279      106.7750335244
H               148.1653504994       66.0420171888      105.5907303773
H               151.1058680888       66.4592707909      105.8838771721
H               150.3126582037       66.5185706861      104.3077628190
H               151.3648764674       67.8367185158      104.8255278187
N               147.9084693402       71.5470179873      103.4439728014
C               147.2944723759       72.3457465408      102.4034004524
C               148.3679789833       73.1512306372      101.6553504424
O               148.3770497319       73.2498018012      100.4333090604
C               146.2546687351       73.2938005533      102.9989220326
C               145.0266856456       72.5508151900      103.5357892140
C               144.1330962297       73.5196084118      104.2868010966
O               144.4804151607       74.0635114117      105.3254983311
N               142.9390112072       73.7561711757      103.7256037304
H               147.6381577104       71.7257614069      104.4054776957
H               146.8278255641       71.6812746827      101.6646237180
H               146.7218601363       73.8575223969      103.8085115290
H               145.9501979899       74.0047976780      102.2283719664
H               144.4785321397       72.0800872375      102.7222842125
H               145.3344732928       71.7841460508      104.2483826251
H               142.6553243833       73.3100723657      102.8714998513
H               142.3074281952       74.4038590640      104.1692797578
N               149.2799518000       73.7209014279      102.4409910722
C               150.3968617222       74.4583866137      101.8822484286
C               151.2182167848       73.5141845229      100.9988284742
O               151.6470879596       73.8403995840       99.8964971623
C               151.2519746570       75.0137576634      103.0216060311
C               152.2650172298       76.0516483337      102.5436243258
C               151.5931096989       77.4114455517      102.3598314794
N               152.5620094052       78.4028330661      101.9423851205
C               152.3926718648       79.3522964731      101.0269211990
N               151.2878595669       79.4557772904      100.3065576001
N               153.3745573340       80.2519643300      100.8698362466
H               149.1954167378       73.6731928408      103.4492813714
H               150.0252644526       75.2659760274      101.2370678724
H               150.5857093990       75.4667191770      103.7587664252
H               151.7537264284       74.1729002788      103.5012753635
H               153.0654917033       76.1468191613      103.2782210106
H               152.6995420001       75.7281066565      101.5970933427
H               150.8036796456       77.3338630543      101.6163002326
H               151.1471095963       77.7258323173      103.3098092335
H               153.4195044206       78.4061664515      102.4796952873
H               150.6132239072       78.6717801789      100.1942800650
H               151.2458649155       80.1469404751       99.5759186181
H               154.1842551210       80.2400079012      101.4664191091
H               153.2761236188       81.0031891696      100.2087763373
N               151.4260564178       72.3025134486      101.5190426264
C               152.1776955661       71.3140453176      100.7733907818
C               151.5288879318       71.1129823641       99.4022421744
O               152.2160027305       71.0969379955       98.3837764631
C               152.3338240578       70.0015036661      101.5519560532
C               153.0012798585       68.9499482440      100.6704652676
C               153.1768438665       70.2291232691      102.8068336266
H               151.1539997947       72.1028695088      102.4754910373
H               153.1769256947       71.7197502424      100.5590924624
H               151.3321193379       69.6624527021      101.8290468699
H               153.1290793798       68.0278251094      101.2283508559
H               152.4056158820       68.7489053270       99.7870682857
H               153.9798745613       69.2967800849      100.3473802029
H               153.2929203600       69.2952248922      103.3500807704
H               154.1681591299       70.5859888777      102.5363501533
H               152.7238466751       70.9590749386      103.4708621481
N               150.2050902806       70.9494046158       99.3748705214
C               149.5312794266       70.8163779094       98.0974758038
C               150.0863300089       71.8316707636       97.0863183086
O               150.3822611857       71.5021612263       95.9451640709
C               148.0256858135       71.0517701138       98.2210842644
C               147.2887858346       69.9254604770       98.9455561347
C               145.7956251949       70.2714604353       99.0332174650
N               145.0066178318       69.2176636721       99.6406363715
C               144.6208677136       68.1060727518       99.0065464011
N               144.8394805446       67.9244858920       97.7148347786
N               143.9450923456       67.1695190175       99.6687704014
H               149.6647809460       70.8913535129      100.2321533927
H               149.7303708823       69.8197517321       97.6765431515
H               147.8712359256       71.9934196272       98.7473939561
H               147.6269128996       71.1564744679       97.2106207510
H               147.4217804868       68.9898903186       98.4009185966
H               147.6981471930       69.7908793053       99.9478139245
H               145.6635643050       71.1740087969       99.6300660118
H               145.4029372673       70.4836963276       98.0367874469
H               144.9202985456       69.2297247452      100.6465466974
H               145.3460898428       68.5920430265       97.1614800400
H               144.5914520507       67.0123933373       97.3219538410
H               143.7412140964       67.2417850264      100.6507643896
H               143.7115572782       66.3204076746       99.1666952357
N               150.0821859835       73.0999692365       97.5089023552
C               150.4627966368       74.1950292853       96.6428229849
C               151.8740781162       74.0065459725       96.0882878281
O               152.1588125794       74.2494271159       94.9172553330
C               150.4587658065       75.5244229596       97.4044771022
C               149.0879700912       75.9627316235       97.9137704918
C               149.3150572303       77.3441165148       98.5804995578
O               149.1664737677       78.3646267312       97.8911847027
O               149.6994846883       77.3192044406       99.7762150870
H               149.8473546264       73.3274087636       98.4661510712
H               149.7748118236       74.2446103290       95.7883140849
H               151.1320005617       75.4412516435       98.2603119768
H               150.8430349950       76.3018426491       96.7378686803
H               148.3786623808       76.0671481754       97.0925642823
H               148.7057060775       75.2651406351       98.6592059973
N               152.7728984955       73.6376535281       96.9986379154
C               154.1777664325       73.4651888040       96.6837210518
C               154.3465106341       72.3733015430       95.6243222201
O               155.0570912573       72.5419778959       94.6355182978
C               154.9431067131       73.1302016948       97.9634051750
C               154.9440432493       74.3055546240       98.9519053689
C               155.3078504980       73.8272701363      100.3541461310
C               155.9189671678       75.3963870214       98.5150534561
H               152.4762511787       73.4671098101       97.9538132684
H               154.5665076209       74.3874897528       96.2326838446
H               154.4617150978       72.2619527327       98.4159909235
H               155.9691787448       72.8612493225       97.7123148751
H               153.9354376821       74.7295309770       98.9882691408
H               155.1588287398       74.6332685858      101.0661136251
H               154.6841181231       72.9896191946      100.6504931341
H               156.3494355961       73.5188504813      100.3904529367
H               155.8323687479       76.2647314404       99.1629072945
H               156.9434910285       75.0329034632       98.5783129247
H               155.7339415339       75.7190552589       97.4931434290
N               153.6693377672       71.2536547362       95.8633354346
C               153.6701582794       70.1423079316       94.9278035516
C               153.2949077648       70.6562969637       93.5362382360
O               154.0037068361       70.4617134417       92.5502848465
C               152.6912302369       69.0772157695       95.4028565962
H               153.1014357565       71.1670333103       96.7018150700
H               154.6859663297       69.7318281590       94.8497877044
H               152.6455072808       68.2703992907       94.6778666233
H               153.0258589413       68.6800773362       96.3568119160
H               151.7039571259       69.5152978159       95.5227348285
N               160.9218038841       74.6126633654      101.8886667706
C               159.6354451080       74.9550417510      102.4626953436
C               158.8725011085       73.6896662692      102.8598714146
O               158.3860378365       73.5626050075      103.9809385694
C               158.8493871304       75.8144686552      101.4770650462
C               157.4436166562       76.1044590373      101.9759756430
C               157.3238488619       76.9235146171      103.2815670447
O               156.1274017080       77.1326775302      103.6221332244
O               158.3261245179       77.3088322604      103.8927387872
H               161.1071280244       74.8738726358      100.9274858623
H               159.7940895048       75.5217351349      103.3902253799
H               159.3967877055       76.7477013417      101.3296483746
H               158.7977709859       75.2870995915      100.5212732210
H               156.8882193850       76.6475997503      101.2107103488
H               156.9259914106       75.1641780602      102.1689082741
N               158.7508219238       72.7519864661      101.9183552729
C               158.1150989411       71.4806135871      102.2245947913
C               158.6545842847       70.9427794534      103.5531898328
O               157.9256180079       70.5031082984      104.4318852118
C               158.3519598183       70.4379264803      101.1140107889
C               157.6219229111       70.8483807840       99.8283506326
C               157.8995133852       69.0587346422      101.5916871860
C               157.8645797911       69.8878967357       98.6681632455
H               159.1829396948       72.8774968111      101.0095667533
H               157.0367989906       71.6422437918      102.3589384905
H               159.4286799966       70.4074500329      100.9162910730
H               156.5502950194       70.9033831223      100.0245551586
H               157.9646204471       71.8400089371       99.5292209520
H               158.1441158630       68.3063603391      100.8491694402
H               158.4007217238       68.7830022813      102.5149472117
H               156.8270487172       69.0571853032      101.7684501607
H               157.4612192038       70.3069010150       97.7494246274
H               158.9301611720       69.7174060993       98.5222710082
H               157.3870826297       68.9284790864       98.8406221597
N               159.9852650828       70.9336197078      103.6304557324
C               160.6913135319       70.3456077605      104.7453248301
C               160.2819122936       71.0392985968      106.0403947070
O               159.9570531947       70.4050115738      107.0373339611
C               162.2154866584       70.4198953894      104.5110027994
O               162.5608290672       69.8072106492      103.2855637918
C               162.9602485858       69.6979735075      105.6266000675
H               160.5222399420       71.3400442383      102.8773398433
H               160.3992721524       69.2901270701      104.8423893422
H               162.4991818882       71.4828603670      104.4893932258
H               162.2280735671       70.3638224441      102.5619703700
H               164.0279432303       69.8627855356      105.5213643932
H               162.6235769145       70.0535506907      106.5951523201
H               162.7638888728       68.6315865817      105.5604411741
N               160.2802558698       72.3743779704      106.0068193425
C               159.8156455230       73.1163535140      107.1626870994
C               158.4521795169       72.5663631980      107.6090938739
O               158.2257945162       72.2967901355      108.7844357940
C               159.7074031179       74.6135238270      106.8636963984
C               159.3266530857       75.3794197196      108.1380115562
C               158.9160574564       76.8151311785      107.8585445107
O               157.7733070011       77.2121830067      108.0316456577
N               159.9058781900       77.6214663642      107.4591505195
H               160.5908782302       72.8819491423      105.1852514054
H               160.5095710235       72.9528126162      107.9995966087
H               160.6668491697       74.9554533799      106.4722766549
H               158.9583661988       74.7686280133      106.0847944268
H               158.4878796480       74.8796220031      108.6245064689
H               160.1656458786       75.3800549759      108.8353306467
H               160.8181813157       77.2558827006      107.2500064378
H               159.6914638565       78.5635247316      107.1724015513
N               157.5410382705       72.4814866685      106.6414013080
C               156.1774101289       72.0681882511      106.9156448490
C               156.1813025577       70.7401999017      107.6830796493
O               155.4912955592       70.5670266959      108.6830748588
C               155.3922402345       71.9016459416      105.6107768734
C               155.1974853683       73.2116167784      104.8446154786
C               154.1527220350       74.1380917871      105.4906795896
N               154.5895820884       75.5186539929      105.4725955274
C               155.0618645230       76.2275630411      106.4999730661
N               154.9083754027       75.8509140740      107.7677854812
N               155.6100243921       77.4063947278      106.2205644616
H               157.7790334012       72.7313510084      105.6871035273
H               155.6976602759       72.8064025972      107.5719826454
H               155.9351989601       71.1947048214      104.9839732457
H               154.4175429406       71.4758061492      105.8486040136
H               156.1485953352       73.7407401897      104.7767127177
H               154.8855741810       72.9713705879      103.8284126702
H               153.2122132923       74.0743306992      104.9401493848
H               153.9539240444       73.8302449084      106.5151545127
H               154.9006844843       75.8742437126      104.5688110051
H               154.3753562329       75.0414566176      108.0478013408
H               155.3477193094       76.4060364459      108.4827909685
H               155.9060186539       77.5284666201      105.2297417767
H               156.1692254029       77.8433469305      106.9385089716
N               156.9354084101       69.7918067384      107.1263076536
C               156.9974617404       68.4493837849      107.6662802159
C               157.4754200384       68.4957166024      109.1192940052
O               156.8812633212       67.9614603270      110.0476080584
C               157.9436851442       67.5574720870      106.8643735070
C               157.5106214542       67.3051084665      105.4148136996
C               158.6051622592       66.5157426800      104.6985166422
C               156.1875918636       66.5474191708      105.3485379308
H               157.4791722041       70.0200232313      106.3003847257
H               155.9916737031       68.0112290790      107.6881172155
H               158.9380901714       68.0084625951      106.8726974986
H               158.0089435904       66.6002015701      107.3881538062
H               157.3923758452       68.2674425070      104.9073193494
H               158.3445363759       66.3498070313      103.6568523533
H               159.5585812188       67.0370630577      104.7430188854
H               158.7412534458       65.5387841895      105.1595104582
H               156.0126560363       66.1842852299      104.3397270513
H               156.2145494476       65.6861382424      106.0147812131
H               155.3557428378       67.1804433180      105.6441362549
N               158.5885814441       69.2156186160      109.2897263933
C               159.2155546453       69.3128779560      110.5879646086
C               158.1897285008       69.8170336728      111.6047169217
O               158.0993676760       69.3341831520      112.7317399939
C               160.4035669979       70.2705756027      110.5260370405
C               161.5645285536       69.6834994158      109.7248651951
O               161.4893492824       68.6516357222      109.0817176507
N               162.6861143675       70.4236715923      109.7753957983
H               159.1164792407       69.5510974400      108.4914120738
H               159.5412649561       68.3152415948      110.9199174442
H               160.0730153867       71.1990611060      110.0549299519
H               160.7421458246       70.4859667204      111.5401085171
H               163.5174014708       70.0632472956      109.3334031970
H               162.7650170421       71.2268370390      110.3757555724
N               157.4603791308       70.8536003323      111.1957218364
C               156.4807441342       71.4606181613      112.0712691772
C               155.4013267822       70.4547443890      112.4503800190
O               155.0478631426       70.3041910166      113.6185901966
C               155.8736070406       72.7041077862      111.4254475661
C               154.7876311197       73.3251171011      112.2978223401
C               155.2211122680       73.7013168889      113.7362815738
O               156.4193087450       73.5904117921      114.0659708531
O               154.3108993561       74.1073107557      114.4892327470
H               157.5804466452       71.2370181714      110.2635224017
H               156.9748947389       71.7526003021      113.0070788174
H               156.6750936374       73.4282432096      111.2758181240
H               155.4491230067       72.4271368354      110.4578880633
H               154.4102646671       74.2395692684      111.8351445386
H               153.9409103694       72.6414582452      112.4050352770
N               154.8574120949       69.7698218629      111.4444236064
C               153.8848806248       68.7318613444      111.7196015898
C               154.3874148881       67.8704308902      112.8771244154
O               153.6679967624       67.5832595898      113.8314616542
C               153.6058327787       67.8778570546      110.4722922725
C               152.8307851132       68.7143238213      109.4459488621
C               152.8554894886       66.6076571174      110.8691525817
C               152.6260530331       67.9975021886      108.1165647481
H               155.1882168988       69.8883067667      110.4931493902
H               152.9499019870       69.1977857234      112.0686641953
H               154.5734411989       67.5900907247      110.0473012596
H               151.8615651245       68.9874129019      109.8688331948
H               153.3849923867       69.6365930064      109.2659654241
H               152.6022162402       66.0233568981      109.9903736046
H               153.4793225092       65.9861583154      111.5103802941
H               151.9460501053       66.8513523192      111.4131248192
H               152.2159553756       68.6876495145      107.3849474384
H               153.5748227348       67.6159133254      107.7468137410
H               151.9404591507       67.1618500636      108.2193617515
N               154.6760437722       61.0685764466      104.3805847656
C               155.2000530500       62.1941698636      103.6489284871
C               156.5710699118       62.6674691771      104.1239717392
O               157.1353432550       63.6026474349      103.5716890535
C               154.2266770931       63.3780731101      103.6839302378
C               152.8672820988       63.0770742975      103.0432065732
C               151.9458736605       64.2703536163      103.2794186520
C               152.9930165489       62.7854587106      101.5502268278
H               154.4845487063       61.1799211371      105.3661831135
H               155.3323501886       61.8497471222      102.6157512698
H               154.0818872738       63.6592110689      104.7299832585
H               154.7062778943       64.2133353170      103.1717463945
H               152.4409369410       62.1950943385      103.5368171023
H               150.9652130363       64.0776594272      102.8557430812
H               151.8275117221       64.4469185703      104.3446855437
H               152.3659078763       65.1625047941      102.8231415537
H               152.0050845209       62.6340306049      101.1231599297
H               153.4764368414       63.6166010555      101.0438274410
H               153.5695381847       61.8788109822      101.3862123762
N               158.8510626399       63.0442499916      101.1441074372
C               158.4169747725       63.8416020700      100.0065865427
C               159.5725256102       64.7544234282       99.5715199090
O               160.0606976884       65.5774615991      100.3381102763
C               157.2032782420       64.6614330402      100.4436154894
C               156.6737161752       65.6313067498       99.3832997099
C               156.2051779169       64.9042133049       98.1275173665
C               155.5172931889       66.4338753162       99.9764273791
H               158.4858444518       63.3107126326      102.0512968385
H               158.1790034129       63.1586950573       99.1876118045
H               156.4146317040       63.9694072206      100.7447782389
H               157.4972102141       65.2256188471      101.3317681880
H               157.4856965350       66.3159864462       99.1137923423
H               155.7758998615       65.6204154897       97.4325678497
H               157.0356082685       64.4040229223       97.6392064438
H               155.4457102574       64.1717627032       98.3896384138
H               155.1768325133       67.1873870881       99.2719272687
H               154.6851305469       65.7725131977      100.2051156450
H               155.8236186926       66.9252343734      100.8956094595
N               149.7237075791       63.0252667969       99.1833887212
C               149.2994000103       64.1410330434      100.0056572907
C               147.7975117616       64.0252591996      100.2905537853
O               147.3436888371       64.1476746933      101.4246023176
C               149.6750092809       65.4721778801       99.3359389196
C               151.2031264093       65.5881835399       99.2254330475
C               149.0964322573       66.6419171049      100.1291674516
C               151.6472700094       66.5594402457       98.1381722183
H               150.0582275235       63.2194302194       98.2456941357
H               149.7991225497       64.0657844076      100.9811212865
H               149.2373985865       65.4609311413       98.3323746334
H               151.6018211961       65.9084361438      100.1884821281
H               151.6261432149       64.6120681285       98.9890235636
H               149.4253599751       67.5869956064       99.7077780024
H               148.0098013259       66.6143019305      100.1182508336
H               149.4284052362       66.5944971328      101.1633868242
H               152.7291716776       66.6616166495       98.1557849165
H               151.3571796269       66.1861617494       97.1591028215
H               151.2079832897       67.5453264767       98.2677336858
H               145.3169972780       73.1559218898      112.1851940917
H               152.4473051394       71.1704158633       93.4048930932
H               161.5771149815       75.0061182872      102.3638094757
H               155.3253151706       67.5235669884      112.8717864580
H               153.8900862876       60.8165739740      104.0217455452
H               157.0178905696       62.2124038025      104.8942098872
H               158.6032010702       62.1876262484      101.0226150310
H               159.9430357021       64.6850172687       98.6452882658
H               150.4037785646       62.5959164764       99.5873215833
H               147.1590424112       63.8454535673       99.5422043862
