156
Properties=species:S:1:pos:R:3 pbc="F F F"
N      55.15800000      25.05500000       6.05100000 
C      56.22700000      25.36600000       7.02100000 
C      55.75900000      26.14800000       8.26900000 
O      56.34600000      26.03300000       9.29800000 
C      57.44400000      26.01200000       6.37000000 
C      58.25200000      25.00000000       5.71100000 
S      59.20400000      23.90200000       6.91300000 
C      58.39100000      22.23200000       6.53400000 
H      55.42600000      24.35100000       5.50200000 
H      54.29600000      24.77300000       6.52000000 
H      54.93600000      25.88200000       5.52300000 
H      56.52000000      24.37300000       7.50100000 
H      57.06100000      26.74300000       5.69500000 
H      58.02700000      26.49800000       7.15800000 
H      57.73100000      24.33500000       5.01000000 
H      59.05900000      25.50000000       5.09800000 
H      58.91900000      21.51800000       7.15900000 
H      57.35500000      22.26000000       6.81500000 
H      58.52100000      22.00400000       5.50800000 
N      54.71700000      26.99500000       8.12600000 
C      54.31300000      27.69500000       9.38600000 
C      53.83800000      26.77800000      10.43300000 
O      54.11200000      26.96700000      11.53800000 
C      53.17400000      28.68200000       9.02700000 
H      54.27600000      27.17700000       7.32000000 
H      55.13500000      28.23700000       9.69600000 
H      52.93600000      29.25000000       9.82000000 
H      53.54700000      29.38500000       8.18400000 
H      52.33400000      28.15900000       8.62100000 
N      53.15300000      25.65000000      10.03000000 
C      52.72100000      24.78700000      10.99100000 
C      53.81900000      23.98400000      11.62800000 
O      53.87800000      23.73500000      12.83000000 
C      51.67100000      23.80200000      10.47200000 
C      51.00900000      23.02200000      11.50000000 
O      51.34100000      21.92700000      11.88100000 
N      49.95800000      23.68800000      12.19100000 
H      52.95400000      25.54700000       9.09800000 
H      52.26300000      25.31700000      11.82600000 
H      50.96300000      24.38100000       9.87600000 
H      52.12900000      23.11800000       9.78300000 
H      49.52000000      23.26100000      12.86400000 
H      49.70100000      24.59400000      11.86800000 
N      54.90600000      23.66500000      10.77800000 
C      56.10500000      23.04900000      11.27400000 
C      56.66600000      23.95900000      12.25600000 
O      57.16200000      23.46100000      13.42600000 
C      57.00800000      22.86000000      10.12000000 
C      58.36500000      22.32700000      10.53100000 
C      58.34600000      20.81200000      11.02700000 
C      59.75700000      20.46000000      11.37500000 
N      59.67700000      18.98600000      11.76600000 
H      54.80900000      23.92900000       9.83800000 
H      55.81700000      22.12100000      11.77600000 
H      56.52000000      22.14000000       9.39500000 
H      57.10900000      23.75200000       9.60500000 
H      59.00600000      22.33200000       9.60000000 
H      58.83000000      22.96000000      11.21100000 
H      57.72900000      20.85000000      11.93200000 
H      57.88200000      20.23800000      10.28900000 
H      60.38400000      20.45400000      10.45400000 
H      60.17000000      21.02500000      12.13800000 
H      60.65100000      18.68900000      12.05700000 
H      59.12700000      18.93800000      12.69400000 
H      59.35300000      18.42400000      11.16000000 
N      56.81700000      25.21500000      11.97800000 
C      57.47200000      26.16800000      12.82600000 
C      56.72500000      26.19400000      14.19900000 
O      57.36000000      26.21200000      15.26300000 
C      57.48600000      27.47700000      12.21300000 
H      56.50400000      25.53000000      11.13500000 
H      58.43100000      25.79900000      13.10100000 
H      57.95800000      28.25700000      12.88100000 
H      58.05200000      27.45900000      11.30400000 
H      56.49200000      27.85500000      11.96400000 
N      55.40200000      26.39800000      14.18300000 
C      54.73100000      26.45100000      15.45400000 
C      54.69900000      25.18000000      16.16800000 
O      54.76900000      25.16700000      17.40600000 
C      53.36200000      27.15200000      15.32000000 
C      52.35700000      26.24400000      14.55300000 
C      52.83100000      27.49100000      16.67900000 
H      54.92400000      26.45600000      13.31300000 
H      55.35100000      27.16600000      16.09900000 
H      53.52900000      28.07800000      14.76000000 
H      51.42800000      26.81800000      14.45100000 
H      52.73600000      26.07100000      13.58600000 
H      52.19500000      25.37300000      15.07000000 
H      51.90900000      28.08400000      16.58400000 
H      52.57500000      26.65100000      17.23400000 
H      53.54300000      28.09900000      17.24700000 
N      54.70000000      24.05300000      15.47500000 
C      54.90400000      22.82500000      16.08700000 
C      56.17500000      22.84000000      16.91900000 
O      56.21900000      22.40100000      18.09300000 
C      55.00000000      21.67200000      15.16100000 
C      55.30200000      20.41100000      15.85500000 
O      54.47600000      19.77300000      16.57400000 
N      56.61500000      20.02900000      15.90400000 
H      54.58100000      24.03000000      14.45000000 
H      54.09600000      22.63900000      16.84100000 
H      54.03900000      21.48800000      14.67600000 
H      55.69400000      21.85400000      14.42100000 
H      56.90600000      19.26700000      16.44500000 
H      57.34300000      20.55000000      15.49500000 
N      57.20200000      23.20000000      16.19900000 
C      58.52200000      23.16000000      16.88400000 
C      58.58500000      24.07400000      18.03600000 
O      59.22100000      23.77400000      19.08200000 
C      59.59000000      23.32700000      15.83800000 
C      59.68000000      22.27900000      14.78800000 
O      58.98800000      21.17600000      15.01000000 
O      60.49700000      22.41600000      13.82700000 
H      57.19900000      23.48100000      15.31100000 
H      58.64400000      22.15300000      17.28400000 
H      59.44000000      24.26300000      15.32300000 
H      60.57700000      23.43800000      16.31500000 
N      58.00100000      25.29300000      17.93200000 
C      57.94000000      26.20700000      18.91300000 
C      57.23400000      25.59400000      20.19300000 
O      57.69700000      25.73000000      21.29000000 
C      57.16800000      27.43400000      18.44800000 
C      56.98100000      28.46800000      19.52100000 
C      58.02000000      29.16300000      20.06300000 
C      55.74800000      28.78300000      20.00400000 
C      57.84400000      30.14300000      21.04000000 
C      55.47900000      29.76100000      20.91900000 
C      56.64300000      30.44300000      21.46400000 
H      57.58100000      25.51500000      16.99300000 
H      58.95000000      26.48000000      19.29800000 
H      57.71900000      27.83300000      17.64700000 
H      56.20000000      27.10600000      18.10400000 
H      59.04400000      28.93100000      19.70500000 
H      54.85900000      28.27100000      19.56400000 
H      58.68800000      30.64400000      21.41200000 
H      54.55100000      29.98700000      21.27200000 
H      56.44500000      31.17200000      22.22300000 
N      53.88400000      32.67600000      14.45900000 
C      54.46400000      32.16300000      15.65900000 
C      55.17900000      33.36000000      16.45200000 
O      55.23800000      33.38600000      17.60500000 
C      55.33200000      31.00600000      15.49100000 
C      56.53100000      31.28600000      14.53200000 
C      55.81300000      30.41900000      16.79800000 
H      54.20100000      32.21300000      13.61900000 
H      53.65600000      31.94500000      16.35000000 
H      54.73300000      30.27800000      15.01800000 
H      57.07800000      30.39300000      14.42700000 
H      56.23800000      31.65500000      13.65500000 
H      57.18800000      32.03100000      15.05300000 
H      56.29500000      29.46400000      16.63700000 
H      56.54600000      31.07200000      17.28800000 
H      54.99100000      30.25700000      17.49700000 
H      56.38190019      25.07970628      20.09590267 
H      52.98968615      32.58090652      14.49305834 
H      55.59287413      34.11738742      15.94695297 
