581
Properties=species:S:1:pos:R:3 pbc="F F F"
N       9.85500000      15.36400000      32.34900000 
C       9.54900000      14.06000000      31.64900000 
C      10.83500000      13.59500000      30.97300000 
O      10.95600000      13.65100000      29.74600000 
C       8.39500000      14.21800000      30.65400000 
C       7.03100000      14.01400000      31.30400000 
S       5.64300000      14.01900000      30.03100000 
C       5.02000000      15.78300000      30.15000000 
H       9.02200000      15.74900000      32.77100000 
H      10.52800000      15.24900000      33.09300000 
H      10.23000000      16.05200000      31.70900000 
H       9.29000000      13.35700000      32.42800000 
H       8.45800000      15.18600000      30.16900000 
H       8.52900000      13.47700000      29.88200000 
H       6.98000000      13.04800000      31.78300000 
H       6.79400000      14.77300000      32.03500000 
H       4.28800000      15.90200000      29.36800000 
H       4.56400000      15.93400000      31.11300000 
H       5.83600000      16.47100000      29.99900000 
N      11.77700000      13.09400000      31.78000000 
C      13.13000000      12.82900000      31.32600000 
C      13.24400000      11.73300000      30.30300000 
O      14.30400000      11.61800000      29.65700000 
H      11.58700000      12.97000000      32.74900000 
H      13.54200000      13.71100000      30.85300000 
H      13.73800000      12.57700000      32.18300000 
N      12.11000000      12.00400000      27.44200000 
C      12.37200000      12.66000000      26.17000000 
C      13.86500000      12.73500000      25.87200000 
O      14.23100000      12.90600000      24.69100000 
C      11.71500000      14.04200000      26.11700000 
H      11.70500000      12.53200000      28.19000000 
H      11.96600000      12.05200000      25.37600000 
H      11.88000000      14.48700000      25.14600000 
H      10.64800000      13.93800000      26.26600000 
H      12.11300000      14.70100000      26.87800000 
N      14.74500000      12.57200000      26.86200000 
C      16.18100000      12.56700000      26.62600000 
C      16.59300000      11.39900000      25.73900000 
O      17.63500000      11.46900000      25.06400000 
C      16.96400000      12.55600000      27.96700000 
C      17.32400000      11.15700000      28.50500000 
C      17.42300000      10.99700000      30.02400000 
N      18.16700000      12.07400000      30.69500000 
C      18.58800000      12.02400000      31.95600000 
N      18.61700000      10.87800000      32.62500000 
N      18.98500000      13.13600000      32.57000000 
H      14.43100000      12.44500000      27.80200000 
H      16.44900000      13.45900000      26.08400000 
H      17.87400000      13.11600000      27.80300000 
H      16.37100000      13.11200000      28.68000000 
H      16.56700000      10.44300000      28.21400000 
H      18.25200000      10.83900000      28.04400000 
H      16.42900000      10.95900000      30.44100000 
H      17.91800000      10.05500000      30.21100000 
H      18.20200000      12.95700000      30.24300000 
H      18.39900000      10.01000000      32.19700000 
H      18.89200000      10.85600000      33.57900000 
H      18.86700000      14.02800000      32.15000000 
H      19.39000000      13.11000000      33.47600000 
N      30.47500000      23.45600000      15.76900000 
C      29.42800000      24.43900000      15.58400000 
C      28.68800000      24.75700000      16.87000000 
O      28.15900000      25.88800000      16.98900000 
C      28.47200000      24.00900000      14.45000000 
C      27.69000000      25.16600000      13.81100000 
C      28.59800000      26.14300000      13.04700000 
C      27.86400000      27.41700000      12.62700000 
N      28.82900000      28.57300000      12.60900000 
H      30.35200000      22.53300000      15.40800000 
H      29.90500000      25.36800000      15.32000000 
H      29.07800000      23.53400000      13.69000000 
H      27.78500000      23.25700000      14.81800000 
H      26.95900000      24.74600000      13.12900000 
H      27.13600000      25.70400000      14.57000000 
H      29.43300000      26.42500000      13.67400000 
H      29.01800000      25.65300000      12.17500000 
H      27.42400000      27.34000000      11.64600000 
H      27.10100000      27.68800000      13.33600000 
H      28.39400000      29.41500000      12.26700000 
H      29.13500000      28.73700000      13.56300000 
H      29.63100000      28.38700000      12.02700000 
N      28.63200000      23.85100000      17.84300000 
C      27.92100000      24.06500000      19.11000000 
C      28.34200000      25.37500000      19.76300000 
O      27.49000000      26.13900000      20.24300000 
C      28.18800000      22.83000000      20.00600000 
C      27.39200000      22.66000000      21.32000000 
C      27.81000000      23.60700000      22.45700000 
C      25.87200000      22.68600000      21.10700000 
H      29.01600000      22.94300000      17.67500000 
H      26.86400000      24.16700000      18.91300000 
H      27.97000000      21.96500000      19.38800000 
H      29.24900000      22.79300000      20.22900000 
H      27.64800000      21.65500000      21.64800000 
H      27.35600000      23.28300000      23.38800000 
H      28.88600000      23.60300000      22.59500000 
H      27.49300000      24.62400000      22.27700000 
H      25.36200000      22.39100000      22.01800000 
H      25.52000000      23.67600000      20.84200000 
H      25.57400000      21.99800000      20.32200000 
N      29.64600000      25.67300000      19.81400000 
C      30.15100000      26.87500000      20.46700000 
C      29.59900000      28.14700000      19.84100000 
O      29.47100000      29.16800000      20.53300000 
C      31.70300000      26.80800000      20.45700000 
C      32.47400000      28.13000000      20.68500000 
C      33.79600000      27.85400000      21.41600000 
C      32.75900000      28.85000000      19.35700000 
H      30.30500000      25.03900000      19.42200000 
H      29.80600000      26.89900000      21.49100000 
H      31.96700000      26.09500000      21.23100000 
H      32.02400000      26.38100000      19.51400000 
H      31.88000000      28.78500000      21.31100000 
H      34.36100000      28.77300000      21.53600000 
H      33.62200000      27.43600000      22.40000000 
H      34.41100000      27.15600000      20.85500000 
H      33.30000000      29.77400000      19.52900000 
H      33.36700000      28.22000000      18.71300000 
H      31.85600000      29.09500000      18.81600000 
N      29.30800000      28.13600000      18.53300000 
C      28.96300000      29.33900000      17.80700000 
C      27.47800000      29.66200000      17.78100000 
O      27.11700000      30.75500000      17.30700000 
C      29.50900000      29.28600000      16.37800000 
O      28.76900000      28.39600000      15.52600000 
H      29.33400000      27.27000000      18.04100000 
H      29.43700000      30.17500000      18.30200000 
H      29.42800000      30.25900000      15.92600000 
H      30.54900000      28.99400000      16.41300000 
H      28.61700000      27.51900000      15.88900000 
N      26.60300000      28.77100000      18.24800000 
C      25.17300000      29.02900000      18.16600000 
C      24.78900000      30.12200000      19.15800000 
O      25.29800000      30.13800000      20.29400000 
C      24.37100000      27.71400000      18.39400000 
C      24.32800000      27.24400000      19.85300000 
C      22.94700000      27.82800000      17.83500000 
H      26.92400000      27.92500000      18.66500000 
H      24.96700000      29.36000000      17.16200000 
H      24.90000000      26.96800000      17.80900000 
H      23.92700000      26.23700000      19.89300000 
H      25.30400000      27.22900000      20.31200000 
H      23.68400000      27.88000000      20.44300000 
H      22.43700000      26.87800000      17.93900000 
H      22.37000000      28.56700000      18.37600000 
H      22.94900000      28.09200000      16.78300000 
N      23.86400000      31.03100000      18.81600000 
C      23.37200000      31.97500000      19.82600000 
C      22.67500000      31.24900000      20.96800000 
O      21.90800000      30.29700000      20.74500000 
C      22.38400000      32.86600000      19.04200000 
C      22.88600000      32.78400000      17.59600000 
C      23.36200000      31.34000000      17.46000000 
H      24.19600000      32.55700000      20.21400000 
H      21.38400000      32.45600000      19.10900000 
H      22.36600000      33.87300000      19.42900000 
H      22.11500000      33.02500000      16.87700000 
H      23.71500000      33.46500000      17.44400000 
H      22.54900000      30.68000000      17.19400000 
H      24.15000000      31.23900000      16.73200000 
N      22.90000000      31.72300000      22.20000000 
C      22.32500000      31.15500000      23.40300000 
C      21.40200000      32.14500000      24.09900000 
O      21.50200000      33.36900000      23.93900000 
C      23.41300000      30.75900000      24.42000000 
C      24.38500000      29.65900000      23.97600000 
C      25.34700000      29.37900000      25.13300000 
C      23.67100000      28.36600000      23.56400000 
H      23.52600000      32.48700000      22.31500000 
H      21.75100000      30.29000000      23.11300000 
H      23.98000000      31.65300000      24.67100000 
H      22.92200000      30.43400000      25.33200000 
H      24.95700000      30.01900000      23.12800000 
H      26.05300000      28.60400000      24.86900000 
H      25.90500000      30.26700000      25.41100000 
H      24.80100000      29.04200000      26.00600000 
H      24.39700000      27.59500000      23.32800000 
H      23.04600000      27.99600000      24.37200000 
H      23.04800000      28.50500000      22.69200000 
N      20.52800000      31.60100000      24.96100000 
C      19.68700000      32.39200000      25.83300000 
C      20.43500000      32.89400000      27.06900000 
O      21.34100000      32.24100000      27.61600000 
C      18.48400000      31.56100000      26.31500000 
C      17.49500000      31.21700000      25.19900000 
C      16.24100000      30.57400000      25.79300000 
N      15.37600000      30.08200000      24.71600000 
C      14.32000000      29.29500000      24.88100000 
N      13.89900000      28.97700000      26.10200000 
N      13.67600000      28.81000000      23.82500000 
H      20.47500000      30.60900000      25.04000000 
H      19.33000000      33.24900000      25.28100000 
H      18.85000000      30.64800000      26.77400000 
H      17.97400000      32.12200000      27.08800000 
H      17.21900000      32.11400000      24.65700000 
H      17.94900000      30.53300000      24.49300000 
H      16.53000000      29.74100000      26.42300000 
H      15.70500000      31.29100000      26.40000000 
H      15.67300000      30.25600000      23.78100000 
H      14.35400000      29.30300000      26.92200000 
H      13.08900000      28.41500000      26.22900000 
H      13.97100000      29.06400000      22.91000000 
H      13.06400000      28.00500000      23.89300000 
N      19.97200000      34.04600000      27.55600000 
C      20.34800000      34.60300000      28.83500000 
C      20.07300000      33.61300000      29.96200000 
O      19.10000000      32.84800000      29.94900000 
C      19.57800000      35.92500000      29.06400000 
C      18.05200000      35.82100000      29.18700000 
C      17.26200000      35.48800000      27.92400000 
O      17.82300000      35.65200000      26.79000000 
O      16.07600000      35.09300000      28.08300000 
H      19.27000000      34.55100000      27.04700000 
H      21.40800000      34.82700000      28.83900000 
H      19.96700000      36.37400000      29.97000000 
H      19.83500000      36.58800000      28.24700000 
H      17.76700000      35.11200000      29.95100000 
H      17.68300000      36.78800000      29.52000000 
N      20.94200000      33.63800000      30.98800000 
C      20.80900000      32.79400000      32.15200000 
C      21.48600000      31.43900000      32.04400000 
O      21.44800000      30.67800000      33.02700000 
H      21.70600000      34.27500000      30.96600000 
H      21.23800000      33.29600000      33.00800000 
H      19.76600000      32.61600000      32.36500000 
N      22.09100000      31.13900000      30.89500000 
C      22.78700000      29.89900000      30.62500000 
C      24.14200000      30.24100000      30.00700000 
O      24.34600000      31.35700000      29.50500000 
C      21.98000000      28.99400000      29.65500000 
C      20.60800000      28.62700000      30.17500000 
C      20.43300000      27.60200000      31.10900000 
C      19.47900000      29.30300000      29.73000000 
C      19.17200000      27.27200000      31.58300000 
C      18.20900000      28.98100000      30.19300000 
C      18.06300000      27.96400000      31.12200000 
O      16.83100000      27.60000000      31.62600000 
H      22.10500000      31.81600000      30.16600000 
H      22.93800000      29.38200000      31.56100000 
H      21.88000000      29.52100000      28.71300000 
H      22.55600000      28.09600000      29.46400000 
H      21.28400000      27.05800000      31.47000000 
H      19.58500000      30.09800000      29.02100000 
H      19.04100000      26.48800000      32.30300000 
H      17.34900000      29.51200000      29.83300000 
H      16.09300000      28.07700000      31.25900000 
N      25.07400000      29.27700000      30.02000000 
C      26.41300000      29.47100000      29.51000000 
C      26.80900000      28.45300000      28.45600000 
O      26.00300000      27.64400000      27.97900000 
H      24.86800000      28.40400000      30.45100000 
H      26.48000000      30.46100000      29.08500000 
H      27.12800000      29.41300000      30.32200000 
N      28.10700000      28.48900000      28.09600000 
C      28.74000000      27.49900000      27.25200000 
C      29.48700000      26.48100000      28.10800000 
O      29.92600000      26.76100000      29.23400000 
C      29.72700000      28.14400000      26.25900000 
C      29.00900000      28.87800000      25.12900000 
C      29.95900000      29.45200000      24.07900000 
N      30.83100000      30.52000000      24.58600000 
C      30.50400000      31.80100000      24.70900000 
N      29.29000000      32.23600000      24.39100000 
N      31.40700000      32.66900000      25.15600000 
H      28.70700000      29.13400000      28.55900000 
H      27.96500000      26.98400000      26.70700000 
H      30.38300000      28.81500000      26.80400000 
H      30.35100000      27.36300000      25.83400000 
H      28.35100000      28.18400000      24.61800000 
H      28.38500000      29.66400000      25.53600000 
H      30.61900000      28.67800000      23.71400000 
H      29.40700000      29.81400000      23.22300000 
H      31.75400000      30.25700000      24.84700000 
H      28.57800000      31.63100000      24.05900000 
H      29.05700000      33.19900000      24.47300000 
H      32.33000000      32.38200000      25.38700000 
H      31.18800000      33.63300000      25.25800000 
N      29.66100000      25.28100000      27.54400000 
C      30.34800000      24.18000000      28.18900000 
C      31.84800000      24.27000000      27.88600000 
O      32.22400000      24.56400000      26.73600000 
C      29.75700000      22.83800000      27.67200000 
C      28.25500000      22.74600000      28.00000000 
C      30.53300000      21.64800000      28.24400000 
C      27.56400000      21.49300000      27.44900000 
H      29.32000000      25.12800000      26.62200000 
H      30.17200000      24.26200000      29.24900000 
H      29.86800000      22.83900000      26.59400000 
H      28.12700000      22.78100000      29.07800000 
H      27.74800000      23.61500000      27.60000000 
H      30.12800000      20.71900000      27.87600000 
H      31.57900000      21.67400000      27.98200000 
H      30.46000000      21.64200000      29.32300000 
H      26.49500000      21.56200000      27.60100000 
H      27.73900000      21.38400000      26.38300000 
H      27.90300000      20.58800000      27.93800000 
N      24.63900000      17.40800000      27.94000000 
C      23.71200000      18.38700000      27.35900000 
C      22.44400000      18.46800000      28.19700000 
O      21.96500000      19.57200000      28.51400000 
C      23.44800000      17.92800000      25.90000000 
C      22.66300000      18.79100000      24.88900000 
C      21.22200000      19.12700000      25.29200000 
C      23.45300000      20.02700000      24.44200000 
H      24.93100000      16.66000000      27.34300000 
H      24.15600000      19.37100000      27.38900000 
H      24.42400000      17.76200000      25.47100000 
H      22.97900000      16.95500000      25.95100000 
H      22.59000000      18.14200000      24.01800000 
H      20.68300000      19.52100000      24.43600000 
H      20.69800000      18.23900000      25.63000000 
H      21.17800000      19.86600000      26.07900000 
H      22.85900000      20.64800000      23.78100000 
H      23.75800000      20.63300000      25.28300000 
H      24.35100000      19.73500000      23.90600000 
N      21.85400000      17.32100000      28.55300000 
C      20.55400000      17.30700000      29.20500000 
C      20.61600000      17.68300000      30.67600000 
O      19.58100000      18.03900000      31.25700000 
C      19.87500000      15.93000000      29.01000000 
C      20.52600000      14.85900000      29.89100000 
C      18.36300000      16.01900000      29.23900000 
H      22.24900000      16.44800000      28.26300000 
H      19.93800000      18.06600000      28.74400000 
H      20.04200000      15.66900000      27.97100000 
H      20.16800000      13.87600000      29.61500000 
H      21.59600000      14.84300000      29.78400000 
H      20.29500000      15.03000000      30.93400000 
H      17.89500000      15.07800000      28.98800000 
H      18.13200000      16.24600000      30.27100000 
H      17.91700000      16.78600000      28.61500000 
N      21.79000000      17.59600000      31.31900000 
C      21.93900000      18.07600000      32.68000000 
C      22.24800000      19.57200000      32.70000000 
O      21.70700000      20.32000000      33.52700000 
C      23.00500000      17.25300000      33.39700000 
O      23.08800000      17.75100000      34.73600000 
H      22.58500000      17.23500000      30.84200000 
H      21.00400000      17.95600000      33.19900000 
H      22.70100000      16.21600000      33.38900000 
H      23.96100000      17.33900000      32.90000000 
H      23.67700000      17.24200000      35.28500000 
N      23.11800000      20.02200000      31.78600000 
C      23.55700000      21.40600000      31.73400000 
C      22.44800000      22.35000000      31.27500000 
O      22.21200000      23.38500000      31.92100000 
C      24.79200000      21.47700000      30.81200000 
C      25.46000000      22.82900000      30.77900000 
C      26.54300000      23.10300000      31.61000000 
C      25.02200000      23.81500000      29.90100000 
C      27.17600000      24.33900000      31.56200000 
C      25.64700000      25.05200000      29.85400000 
C      26.72800000      25.31600000      30.68300000 
H      23.53300000      19.38700000      31.13400000 
H      23.82500000      21.73700000      32.72600000 
H      25.49300000      20.73300000      31.16400000 
H      24.49900000      21.18000000      29.81200000 
H      26.90100000      22.34500000      32.28200000 
H      24.20200000      23.61200000      29.24200000 
H      28.02000000      24.53200000      32.19700000 
H      25.31000000      25.79500000      29.16100000 
H      27.22600000      26.26400000      30.63300000 
N      21.79100000      22.03600000      30.15000000 
C      20.68100000      22.81700000      29.65200000 
C      19.37000000      22.24800000      30.18500000 
O      19.28700000      21.08800000      30.60600000 
C      20.64600000      22.81300000      28.10300000 
C      21.84800000      23.47300000      27.46400000 
C      22.86100000      22.70900000      26.89200000 
C      21.96500000      24.85900000      27.40500000 
C      23.95400000      23.30100000      26.27600000 
C      23.05300000      25.46700000      26.79300000 
C      24.04700000      24.68200000      26.23000000 
O      25.15200000      25.22200000      25.60300000 
H      21.96800000      21.16100000      29.69700000 
H      20.78800000      23.83200000      30.00300000 
H      20.56500000      21.78900000      27.76400000 
H      19.74400000      23.32400000      27.78600000 
H      22.79600000      21.64200000      26.94000000 
H      21.19900000      25.47400000      27.83300000 
H      24.73000000      22.70900000      25.83600000 
H      23.12200000      26.53700000      26.74700000 
H      25.25000000      26.16400000      25.71100000 
N      18.29400000      23.04600000      30.15100000 
C      16.97300000      22.55400000      30.49400000 
C      16.53700000      21.50500000      29.47900000 
O      16.99800000      21.49800000      28.32400000 
C      15.96800000      23.73200000      30.45800000 
C      14.89500000      23.77400000      31.55600000 
C      15.51400000      23.97700000      32.94500000 
C      13.91300000      24.90700000      31.22300000 
H      18.37200000      23.96500000      29.78100000 
H      17.00800000      22.09700000      31.47200000 
H      16.53200000      24.65600000      30.51000000 
H      15.47600000      23.72900000      29.49800000 
H      14.34300000      22.83800000      31.55400000 
H      14.73900000      24.09600000      33.69400000 
H      16.13100000      23.13700000      33.24200000 
H      16.13300000      24.86900000      32.95700000 
H      13.13800000      24.98600000      31.97600000 
H      14.43300000      25.85900000      31.17400000 
H      13.43500000      24.74000000      30.26300000 
N      15.58400000      20.63700000      29.83400000 
C      15.07700000      19.64500000      28.89600000 
C      14.15400000      20.25700000      27.84800000 
O      14.29900000      19.97200000      26.64700000 
C      14.39300000      18.51700000      29.67400000 
C      13.79400000      17.43400000      28.76900000 
C      13.50300000      16.19800000      29.59800000 
O      12.68500000      16.31600000      30.56000000 
O      14.13600000      15.14400000      29.29500000 
H      15.25800000      20.61000000      30.77400000 
H      15.90600000      19.23900000      28.33800000 
H      15.15100000      18.07700000      30.31200000 
H      13.62200000      18.91900000      30.32100000 
H      12.87500000      17.78500000      28.31400000 
H      14.48300000      17.17300000      27.97800000 
N      13.18800000      21.08700000      28.25700000 
C      12.24000000      21.68100000      27.32700000 
C      12.96400000      22.58400000      26.33300000 
O      12.69400000      22.54400000      25.12500000 
C      11.17000000      22.44600000      28.11800000 
O      10.54000000      21.44200000      28.93300000 
C      10.14900000      23.14400000      27.23300000 
H      13.03900000      21.23100000      29.22900000 
H      11.75700000      20.91100000      26.74500000 
H      11.65600000      23.16800000      28.76400000 
H       9.93900000      21.81100000      29.57500000 
H       9.37700000      23.58100000      27.85500000 
H      10.60100000      23.94300000      26.65900000 
H       9.68500000      22.44100000      26.55200000 
N      13.89300000      23.41000000      26.83300000 
C      14.73100000      24.25800000      25.99800000 
C      15.74800000      23.43100000      25.22800000 
O      15.98900000      23.72800000      24.04200000 
C      15.37700000      25.33800000      26.89400000 
C      16.56800000      26.08200000      26.33000000 
C      16.57000000      26.66700000      25.06300000 
C      17.70100000      26.23600000      27.12000000 
C      17.67100000      27.36700000      24.59800000 
C      18.80300000      26.95000000      26.67500000 
C      18.78700000      27.50900000      25.40900000 
O      19.85700000      28.23200000      24.91900000 
H      14.06600000      23.38800000      27.81100000 
H      14.11500000      24.72500000      25.24500000 
H      14.58700000      26.03200000      27.15900000 
H      15.69700000      24.86700000      27.81000000 
H      15.71400000      26.56900000      24.42600000 
H      17.72600000      25.80300000      28.10300000 
H      17.67100000      27.80400000      23.62000000 
H      19.65800000      27.08000000      27.30800000 
H      20.66700000      28.11400000      25.41000000 
N      16.33500000      22.39200000      25.80600000 
C      17.26700000      21.54100000      25.09500000 
C      16.67300000      20.91900000      23.85100000 
O      17.39900000      20.73400000      22.85100000 
H      16.22600000      22.19600000      26.77800000 
H      18.14500000      22.08400000      24.78600000 
H      17.57200000      20.75400000      25.76900000 
N      15.38600000      20.58500000      23.84900000 
C      14.72400000      20.07700000      22.65500000 
C      14.67600000      21.12300000      21.54300000 
O      14.81200000      20.77400000      20.35700000 
C      13.31000000      19.61800000      23.01400000 
H      14.87200000      20.61800000      24.70700000 
H      15.28700000      19.25000000      22.25000000 
H      12.79000000      19.31700000      22.11900000 
H      13.35600000      18.77100000      23.68700000 
H      12.75200000      20.41300000      23.48800000 
N      14.45500000      22.39400000      21.89500000 
C      14.46300000      23.49700000      20.94500000 
C      15.88000000      23.78200000      20.45200000 
O      16.09700000      24.00600000      19.24700000 
C      13.87700000      24.77200000      21.58200000 
C      12.39200000      24.65500000      21.95100000 
C      11.89000000      25.92000000      22.63000000 
O      12.49000000      26.28500000      23.70100000 
O      10.92400000      26.54000000      22.11600000 
H      14.39800000      22.62100000      22.86100000 
H      13.89100000      23.21900000      20.07400000 
H      14.45000000      25.01900000      22.46300000 
H      14.00700000      25.58100000      20.87200000 
H      11.79600000      24.47100000      21.06800000 
H      12.24400000      23.83000000      22.63800000 
N      16.85400000      23.80100000      21.36400000 
C      18.23700000      24.09500000      21.02600000 
C      18.79600000      23.05200000      20.07700000 
O      19.54200000      23.38300000      19.13700000 
C      19.07400000      24.13600000      22.31900000 
C      20.52400000      24.61900000      22.14600000 
C      20.59200000      26.11700000      21.82400000 
C      21.31500000      24.30300000      23.42100000 
H      16.62500000      23.66400000      22.32900000 
H      18.29100000      25.03700000      20.50300000 
H      18.56900000      24.78900000      23.02100000 
H      19.07300000      23.14400000      22.75300000 
H      20.98500000      24.07200000      21.32900000 
H      21.62300000      26.43600000      21.72500000 
H      20.08300000      26.36000000      20.89900000 
H      20.13900000      26.69700000      22.62000000 
H      22.33600000      24.65700000      23.34100000 
H      20.86300000      24.78300000      24.28300000 
H      21.34300000      23.23600000      23.61000000 
N      18.47200000      21.77600000      20.30700000 
C      18.94800000      20.70100000      19.45400000 
C      18.52100000      20.95500000      18.01700000 
O      19.32400000      20.81500000      17.08000000 
C      18.41900000      19.34700000      19.97100000 
O      18.97200000      19.09700000      21.27000000 
C      18.82300000      18.19500000      19.07200000 
H      17.93000000      21.54500000      21.11500000 
H      20.02800000      20.66900000      19.45200000 
H      17.34000000      19.39900000      20.04400000 
H      18.48000000      19.52600000      21.97100000 
H      18.50700000      17.26800000      19.52100000 
H      18.35700000      18.27400000      18.10300000 
H      19.89900000      18.16900000      18.94300000 
N      17.25100000      21.31300000      17.80600000 
C      16.74100000      21.53200000      16.46500000 
C      17.47700000      22.66200000      15.76600000 
O      17.73300000      22.56100000      14.55100000 
C      15.23500000      21.80300000      16.50300000 
H      16.63000000      21.43100000      18.57600000 
H      16.93200000      20.65600000      15.86400000 
H      14.85500000      21.89300000      15.49600000 
H      14.73000000      20.97700000      16.98500000 
H      15.01500000      22.71100000      17.04700000 
N      17.81700000      23.74800000      16.46400000 
C      18.51500000      24.85700000      15.83200000 
C      19.84600000      24.41400000      15.23900000 
O      20.18100000      24.81600000      14.11400000 
C      18.79500000      26.00100000      16.81400000 
C      17.60500000      26.88500000      17.09700000 
O      16.43800000      26.52500000      16.86800000 
N      17.88700000      28.08100000      17.61500000 
H      17.55100000      23.82300000      17.42300000 
H      17.93700000      25.22500000      14.99900000 
H      19.16400000      25.60300000      17.75400000 
H      19.58500000      26.62100000      16.40800000 
H      17.15000000      28.70900000      17.84500000 
H      18.82100000      28.38600000      17.77300000 
N      20.65200000      23.64400000      15.98100000 
C      21.96500000      23.27200000      15.47200000 
C      21.80800000      22.26800000      14.33200000 
O      22.52400000      22.34400000      13.31100000 
C      22.92200000      22.74200000      16.57500000 
C      24.36600000      22.73800000      16.04500000 
C      22.86300000      23.58400000      17.85600000 
H      20.34300000      23.31600000      16.87200000 
H      22.41100000      24.14900000      15.02800000 
H      22.62800000      21.72900000      16.82100000 
H      25.02800000      22.30700000      16.78500000 
H      24.47500000      22.17100000      15.13200000 
H      24.69300000      23.75600000      15.85500000 
H      23.60600000      23.21500000      18.55400000 
H      23.09100000      24.62200000      17.64500000 
H      21.90400000      23.53500000      18.34700000 
N       9.75100000      15.37400000      20.30100000 
C      10.12400000      16.32000000      21.33400000 
C       8.92300000      16.95700000      22.01000000 
O       8.96600000      17.21700000      23.22100000 
C      11.02700000      17.45600000      20.80200000 
O      10.51900000      18.02800000      19.59000000 
C      12.43500000      17.00000000      20.48700000 
H      10.08500000      15.51700000      19.37200000 
H      10.66300000      15.81500000      22.12300000 
H      11.04400000      18.21500000      21.57200000 
H       9.63000000      18.36700000      19.63400000 
H      13.00400000      17.83800000      20.10600000 
H      12.92700000      16.61900000      21.37100000 
H      12.41200000      16.23200000      19.73300000 
H      12.47661756      11.11043239      30.14959283 
H      11.53804019      11.32073632      27.31545860 
H      16.02558415      10.57650369      25.69976898 
H      31.23243764      23.74691964      15.37957224 
H      32.51566693      24.09321257      28.60916462 
H      25.39371934      17.82508425      28.19775851 
H      21.12620555      21.53941668      14.39774704 
H      10.04709665      14.55378561      20.52365473 
H       8.10195794      17.16494105      21.47835119 
