547
Properties=species:S:1:pos:R:3 pbc="F F F"
N      31.61900000      20.33400000      24.74500000 
C      32.53400000      21.04700000      25.61500000 
C      33.75100000      21.46800000      25.12600000 
O      34.27700000      22.60200000      25.31700000 
C      32.84300000      20.01400000      26.95500000 
C      31.56300000      19.00200000      26.65300000 
C      31.17300000      18.95000000      25.28100000 
H      32.04400000      21.85700000      26.06800000 
H      33.73400000      19.43100000      26.60800000 
H      32.92400000      20.43800000      27.70100000 
H      31.88700000      18.01400000      27.18200000 
H      30.80200000      19.40800000      27.35700000 
H      31.81000000      18.15100000      24.76400000 
H      30.28100000      18.76900000      25.16000000 
N      34.49100000      20.70800000      24.16100000 
C      35.70900000      20.86300000      23.52600000 
C      35.46400000      22.30500000      22.58200000 
O      36.37800000      23.06200000      22.68500000 
C      36.43200000      19.81900000      22.99700000 
C      36.72800000      18.71700000      24.02200000 
C      37.62900000      20.07100000      22.21800000 
C      37.69000000      18.85100000      25.09000000 
H      34.01200000      19.78400000      23.90900000 
H      36.39800000      21.40800000      24.46800000 
H      35.65100000      19.38700000      22.17900000 
H      35.70700000      18.37400000      24.47700000 
H      36.96000000      17.75200000      23.39900000 
H      38.20900000      19.30400000      21.90100000 
H      37.46900000      20.78800000      21.31900000 
H      38.38500000      20.78100000      22.89600000 
H      37.79900000      18.15700000      25.69000000 
H      38.69100000      19.11600000      24.59800000 
H      37.44900000      19.83500000      25.63300000 
N      34.69100000      22.01700000      21.96400000 
C      34.19600000      23.39000000      20.91200000 
C      34.09400000      24.56600000      21.61100000 
O      34.55200000      25.59300000      21.34100000 
C      33.15900000      22.98600000      20.00600000 
C      32.67100000      24.08600000      19.01500000 
C      31.79600000      23.68900000      17.97800000 
O      30.74500000      23.89400000      17.84400000 
O      32.47800000      22.99700000      16.99900000 
H      33.96000000      21.36700000      21.68300000 
H      35.23100000      23.50200000      20.27600000 
H      33.44300000      22.13400000      19.31200000 
H      32.28800000      22.60300000      20.55900000 
H      32.06600000      24.85500000      19.70100000 
H      33.54100000      24.69200000      18.73300000 
N      33.31000000      24.61400000      22.75200000 
C      32.94200000      25.72700000      23.59900000 
C      34.27800000      26.06500000      24.20000000 
O      34.52600000      27.64200000      24.20500000 
C      31.86100000      25.52200000      24.43600000 
C      31.27100000      26.76000000      25.33400000 
C      30.88000000      27.77900000      24.39700000 
C      30.20100000      26.18700000      26.16500000 
H      32.80100000      23.64300000      23.04900000 
H      32.72200000      26.53100000      22.80000000 
H      30.97800000      25.12000000      23.87400000 
H      32.09700000      24.67600000      25.18100000 
H      32.21600000      27.06300000      25.92800000 
H      30.51700000      28.75100000      25.11700000 
H      31.71200000      28.32100000      23.78400000 
H      30.09200000      27.60500000      23.80600000 
H      29.88500000      27.11800000      26.87200000 
H      29.38600000      25.94300000      25.66400000 
H      30.51300000      25.49700000      26.86400000 
N      35.07600000      25.33500000      24.86900000 
C      36.21700000      25.92600000      25.44400000 
C      37.35200000      26.37900000      24.32300000 
O      37.90100000      27.38700000      24.69400000 
C      36.91700000      24.53400000      26.24300000 
C      36.14300000      24.32800000      27.53400000 
C      38.40600000      25.10500000      26.74500000 
C      36.39500000      22.99600000      28.12000000 
H      34.82500000      24.45400000      24.86500000 
H      36.09800000      26.59600000      26.10900000 
H      36.96700000      23.84600000      25.65500000 
H      36.19500000      25.11100000      28.24000000 
H      34.96800000      24.35900000      27.20300000 
H      38.78800000      24.18300000      27.30700000 
H      39.05000000      25.10100000      25.85900000 
H      38.40000000      25.87100000      27.25800000 
H      35.69100000      22.76600000      28.97100000 
H      36.24100000      22.16600000      27.39400000 
H      37.38800000      22.90700000      28.49700000 
N      37.25100000      25.71700000      23.37600000 
C      38.27900000      26.39800000      22.23600000 
C      37.74000000      27.69200000      21.69300000 
O      38.65200000      28.52100000      21.45500000 
C      38.42200000      25.31200000      21.01700000 
C      39.18600000      24.16100000      21.32000000 
O      39.99200000      24.07200000      22.41300000 
N      39.06100000      23.13800000      20.33400000 
H      36.91900000      25.02000000      23.09600000 
H      39.22000000      26.44800000      22.61900000 
H      37.33200000      25.02900000      20.68600000 
H      38.79900000      25.84200000      20.20800000 
H      39.70200000      22.26800000      20.54300000 
H      38.57300000      23.17500000      19.72500000 
N      36.57800000      27.77600000      21.59600000 
C      35.97500000      29.17400000      21.18800000 
C      36.30400000      30.25900000      22.05700000 
O      36.78300000      31.33400000      21.81100000 
C      34.39500000      29.10800000      21.00300000 
C      33.84000000      30.41300000      20.71000000 
C      34.36800000      31.02600000      19.27000000 
C      32.17300000      30.13500000      20.37400000 
H      35.82500000      27.16400000      21.70600000 
H      36.47200000      29.46300000      20.24500000 
H      34.29100000      28.33300000      20.09300000 
H      34.03900000      28.65300000      21.75800000 
H      33.88300000      31.02800000      21.40400000 
H      33.78300000      32.04200000      19.17500000 
H      35.34900000      31.31100000      19.49000000 
H      34.23700000      30.47400000      18.53700000 
H      31.76600000      31.02300000      20.27200000 
H      32.08000000      29.50100000      19.60300000 
H      31.85400000      29.65200000      21.31700000 
N      36.19400000      29.97000000      23.50700000 
C      36.52800000      30.92100000      24.55700000 
C      38.10400000      31.43200000      24.41600000 
O      38.39400000      32.22200000      24.58500000 
C      36.18500000      30.41500000      25.84100000 
S      34.42600000      30.30200000      26.26000000 
H      35.74300000      29.09400000      23.76200000 
H      36.04900000      31.89900000      24.26600000 
H      36.62000000      29.48300000      26.05900000 
H      36.66200000      31.15700000      26.60000000 
H      34.11200000      31.73300000      26.29300000 
N      38.84700000      30.37200000      24.19600000 
C      40.30600000      30.44600000      24.13800000 
C      40.69800000      31.27400000      22.99300000 
O      41.52900000      32.30700000      23.06100000 
C      41.09300000      29.05400000      23.96900000 
O      40.70600000      28.26900000      25.26200000 
C      42.43700000      29.15800000      23.97300000 
H      38.48900000      29.26200000      24.09700000 
H      40.66200000      30.93100000      24.95900000 
H      40.61400000      28.51900000      23.10900000 
H      39.81300000      27.85500000      25.13400000 
H      42.94300000      28.18500000      23.92800000 
H      42.84300000      29.67600000      22.97400000 
H      42.92500000      29.72100000      24.77100000 
N      40.01400000      30.88300000      21.72900000 
C      40.33200000      31.87400000      20.55800000 
C      40.03100000      33.23900000      20.65600000 
O      40.65200000      34.18700000      20.17600000 
C      39.89400000      30.99200000      19.24200000 
C      40.48500000      29.92000000      19.00200000 
O      41.72700000      29.60200000      19.34400000 
N      39.68800000      28.99600000      18.14400000 
H      39.54000000      30.31200000      21.67500000 
H      41.58400000      31.86000000      20.43000000 
H      38.77500000      31.00200000      19.46800000 
H      39.97000000      31.81000000      18.48400000 
H      40.22000000      28.09200000      17.90500000 
H      38.98700000      29.10500000      17.97100000 
N      38.72700000      33.41100000      21.28700000 
C      38.23300000      34.77400000      21.30700000 
C      38.96100000      35.56700000      22.01200000 
O      39.01200000      37.14700000      21.76900000 
C      36.71400000      34.70500000      21.95400000 
H      38.25500000      32.67400000      21.58700000 
H      38.10300000      35.17200000      20.36800000 
H      36.39500000      35.60000000      22.04700000 
H      36.20600000      34.07600000      21.44300000 
H      36.88600000      34.21800000      23.02900000 
N      39.95400000      35.29300000      23.15900000 
C      40.70900000      36.31700000      23.88300000 
C      41.80500000      36.98500000      22.94200000 
O      42.29900000      37.82900000      23.38600000 
C      41.22000000      35.61100000      25.07100000 
C      40.26500000      35.34600000      26.19000000 
C      40.97000000      34.71100000      27.35700000 
C      39.57700000      36.61600000      26.75500000 
H      39.87500000      34.39700000      23.33900000 
H      40.08700000      37.06200000      24.08300000 
H      41.78100000      34.69700000      24.80300000 
H      42.08400000      36.31600000      25.46500000 
H      39.54100000      34.68400000      25.88400000 
H      40.32000000      34.48500000      28.21300000 
H      41.48500000      33.75500000      27.08900000 
H      41.79700000      35.34200000      27.79300000 
H      38.94500000      36.42500000      27.56000000 
H      40.29000000      37.38600000      27.00800000 
H      38.93200000      37.08900000      25.91700000 
N      41.91900000      36.29100000      21.83100000 
C      43.18200000      36.99100000      20.82900000 
C      42.54600000      37.97100000      19.83700000 
O      43.36200000      38.51700000      19.08500000 
H      41.65200000      35.68900000      21.48700000 
H      43.77700000      37.46400000      21.45000000 
H      43.49200000      36.22800000      20.32200000 
N      41.14200000      38.25700000      19.99200000 
C      40.66400000      39.39000000      18.97500000 
C      40.85900000      40.64500000      19.52500000 
O      41.12400000      40.96400000      20.51700000 
C      39.18600000      38.89000000      18.71300000 
C      38.90600000      37.83600000      17.88800000 
O      38.77400000      36.66900000      18.17800000 
N      38.93600000      38.04100000      16.44900000 
H      40.64500000      37.92000000      20.51200000 
H      41.19000000      39.17600000      17.96600000 
H      38.71300000      38.74400000      19.67000000 
H      38.64800000      39.88000000      18.33700000 
H      38.80700000      37.39400000      15.81300000 
H      39.06100000      39.07600000      16.13600000 
N      40.59900000      41.79300000      18.53200000 
C      40.62500000      43.04500000      18.76500000 
C      39.18400000      43.54800000      19.09300000 
O      38.52400000      43.97600000      17.93300000 
C      41.41300000      43.88800000      17.72800000 
C      42.84700000      43.77300000      17.67200000 
C      43.57600000      44.57400000      18.67900000 
O      43.31700000      46.01600000      18.45100000 
N      44.44000000      44.26700000      19.57600000 
H      40.39600000      41.38500000      17.58200000 
H      41.15700000      43.23600000      19.78500000 
H      40.95900000      43.53500000      16.74100000 
H      41.13300000      44.89800000      17.77600000 
H      43.15000000      42.61700000      18.07200000 
H      43.28400000      43.80700000      16.77600000 
H      44.55300000      43.31500000      19.69700000 
H      44.88100000      44.87200000      20.15700000 
N      38.62300000      43.63400000      20.02500000 
C      37.21500000      43.91200000      20.33300000 
C      37.10800000      45.33700000      20.31400000 
O      35.72200000      45.82300000      20.29200000 
C      36.73700000      43.32200000      21.75100000 
C      36.71500000      41.85500000      21.74400000 
C      35.68400000      41.11000000      20.73700000 
C      37.44100000      40.97600000      22.55400000 
C      35.72000000      39.98200000      20.76200000 
C      37.28800000      39.76500000      22.39700000 
C      36.50800000      38.85900000      21.62700000 
H      39.26700000      43.26800000      21.01600000 
H      36.72000000      43.48900000      19.64900000 
H      37.45600000      43.65300000      22.54600000 
H      35.79500000      43.78500000      21.94600000 
H      35.18100000      41.81800000      20.18600000 
H      38.13800000      41.52000000      23.24100000 
H      35.00200000      39.36900000      20.03700000 
H      37.98900000      38.99600000      23.14000000 
H      36.41900000      38.08100000      21.53300000 
N      35.06400000      42.20200000      14.90900000 
C      35.42500000      41.20000000      15.86100000 
C      34.11000000      41.27400000      16.85800000 
O      33.84600000      39.97800000      17.17300000 
C      36.56600000      41.62000000      16.72000000 
H      35.75200000      43.16000000      14.93600000 
H      35.46000000      40.32700000      15.37400000 
H      36.80200000      40.69400000      17.44000000 
H      37.54600000      41.51200000      15.97600000 
H      36.62000000      42.40400000      17.16100000 
N      32.43800000      37.41400000      17.03500000 
C      32.46100000      36.59200000      17.96900000 
C      30.94100000      36.50500000      18.63500000 
O      30.73700000      35.28800000      19.15700000 
C      33.49200000      37.08300000      19.06500000 
C      33.58800000      36.21300000      20.20600000 
C      34.97700000      36.88400000      18.25200000 
H      32.79900000      38.21400000      16.82700000 
H      32.70800000      35.50400000      17.70800000 
H      33.30700000      38.01700000      19.24900000 
H      34.35300000      36.58200000      20.93900000 
H      32.63600000      36.17600000      20.78600000 
H      33.84800000      35.13300000      20.02700000 
H      35.67600000      37.26500000      18.99600000 
H      35.10300000      35.99600000      17.96900000 
H      34.96700000      37.64200000      17.45000000 
N      29.48400000      33.51600000      16.59600000 
C      30.13000000      32.26400000      16.75200000 
C      29.66200000      31.85200000      18.13000000 
O      29.29100000      30.39200000      18.21800000 
C      31.68500000      32.50100000      17.03300000 
C      32.43100000      32.51000000      15.61900000 
C      33.89800000      32.85400000      15.84400000 
O      34.29900000      33.71200000      16.85700000 
N      34.81900000      32.27100000      14.96800000 
H      30.23800000      34.47400000      16.42200000 
H      29.95600000      31.65500000      16.20500000 
H      31.95600000      33.23900000      17.68000000 
H      32.10200000      31.46800000      17.54100000 
H      32.32900000      31.72800000      15.11300000 
H      32.00600000      33.45800000      15.13000000 
H      34.50000000      31.76900000      14.41100000 
H      35.68300000      32.51800000      15.13500000 
N      29.52500000      32.74900000      19.24900000 
C      28.90000000      32.04800000      20.50400000 
C      27.23300000      31.60600000      20.16300000 
O      27.13700000      30.46700000      20.56900000 
C      29.02200000      33.00200000      21.60600000 
C      30.26000000      33.02800000      22.34700000 
C      30.60400000      31.95300000      23.29200000 
C      31.20700000      33.98000000      22.19700000 
C      31.77500000      31.92100000      23.83600000 
C      32.43700000      33.77600000      22.90500000 
C      32.59000000      32.86200000      23.61800000 
H      29.74900000      33.39500000      19.20200000 
H      29.43500000      31.11800000      20.77500000 
H      28.71600000      34.06800000      21.22700000 
H      28.10800000      32.79100000      22.33500000 
H      29.79100000      31.18500000      23.40500000 
H      31.00400000      34.83800000      21.49000000 
H      31.95700000      31.07700000      24.53200000 
H      33.23700000      34.77000000      22.63800000 
H      33.71500000      32.82000000      24.16300000 
N      26.78400000      27.77900000      18.62200000 
C      27.22400000      26.58700000      19.21100000 
C      26.22100000      25.86800000      19.78600000 
O      26.25200000      24.49700000      19.94900000 
C      28.44700000      26.54400000      20.13300000 
C      29.71600000      27.32000000      19.47300000 
C      28.17900000      27.44500000      21.41400000 
H      27.04200000      28.75600000      19.18900000 
H      27.52700000      26.01100000      18.32300000 
H      28.68900000      25.71600000      20.34400000 
H      30.53200000      27.20600000      20.03000000 
H      29.91700000      26.70900000      18.45700000 
H      29.53200000      28.30800000      19.16000000 
H      29.06600000      27.37800000      22.05500000 
H      27.91700000      28.38900000      21.28800000 
H      27.41600000      26.93600000      21.99500000 
N      27.42100000      37.59600000      28.59200000 
C      28.34300000      37.81600000      27.34600000 
C      27.64200000      38.19500000      25.91700000 
O      28.20300000      39.08000000      25.39800000 
C      29.06100000      36.34800000      27.15000000 
C      29.94700000      36.21300000      26.00400000 
C      30.99100000      37.09800000      26.03400000 
C      30.56700000      34.71400000      26.25300000 
H      27.33000000      37.06400000      28.88700000 
H      29.18800000      38.52600000      27.52200000 
H      29.53400000      36.18100000      28.16400000 
H      28.17700000      35.64500000      27.17800000 
H      29.39300000      36.23000000      25.16100000 
H      31.81600000      36.90300000      25.14000000 
H      30.73600000      38.20500000      25.81200000 
H      31.64900000      37.16200000      26.89700000 
H      31.14700000      34.51400000      25.25800000 
H      31.04300000      34.62100000      26.95600000 
H      29.68600000      33.96800000      26.13700000 
N      34.63400000      46.48300000      25.33100000 
C      35.79100000      45.72600000      25.07800000 
C      36.07500000      45.37600000      26.64400000 
O      36.44200000      43.82300000      26.64600000 
C      37.01800000      46.65200000      24.64200000 
O      36.76200000      46.88900000      23.40000000 
C      38.37600000      45.87800000      24.51500000 
H      34.78700000      47.70700000      24.99900000 
H      35.67100000      45.05800000      24.55200000 
H      37.13100000      47.49800000      25.26300000 
H      36.32800000      48.00900000      23.27000000 
H      39.07200000      46.48500000      24.25200000 
H      38.66100000      45.55600000      25.65300000 
H      38.27800000      45.02000000      24.06000000 
N      36.15800000      45.80200000      27.57800000 
C      36.35800000      45.50300000      29.00300000 
C      35.24700000      44.50600000      29.35600000 
O      35.58600000      43.40100000      30.08800000 
C      36.71300000      46.50400000      29.96300000 
C      36.85200000      46.09900000      31.36900000 
C      38.05700000      47.28600000      29.51100000 
H      35.93400000      46.92400000      27.50300000 
H      37.35300000      44.71800000      28.87700000 
H      35.89000000      47.30600000      29.85900000 
H      37.10000000      46.90900000      32.01000000 
H      35.91300000      45.65500000      31.73700000 
H      37.63400000      45.30000000      31.46600000 
H      38.23800000      48.09200000      30.14000000 
H      38.87000000      46.59000000      29.57800000 
H      37.98000000      47.64900000      28.46600000 
N      33.30800000      42.51900000      27.40100000 
C      33.57500000      41.40700000      26.79000000 
C      34.42100000      40.27300000      27.36100000 
O      34.34500000      39.49200000      27.53000000 
C      33.66400000      41.66800000      25.19500000 
C      32.65000000      42.30600000      24.56500000 
C      34.18500000      40.31600000      24.60500000 
C      32.89600000      43.00400000      23.28900000 
H      33.49800000      43.52600000      27.00000000 
H      32.45300000      40.77600000      26.83500000 
H      34.55300000      42.37000000      25.22300000 
H      31.75900000      41.43800000      24.34400000 
H      32.00100000      43.00300000      25.24200000 
H      34.32000000      40.58100000      23.45200000 
H      35.11900000      40.01100000      24.89800000 
H      33.48400000      39.61600000      24.64900000 
H      31.97700000      43.46300000      22.79500000 
H      33.59900000      43.79200000      23.46400000 
H      33.33700000      42.30800000      22.50900000 
N      35.70600000      41.09700000      27.57000000 
C      36.84900000      40.29100000      28.17000000 
C      36.56700000      39.58400000      29.53400000 
O      36.82700000      38.74100000      29.78200000 
C      38.02000000      41.02900000      27.97700000 
C      38.59800000      41.17100000      26.63800000 
C      39.94200000      41.96600000      26.39700000 
N      40.42500000      41.93600000      25.20800000 
C      41.09900000      40.83900000      24.66400000 
N      41.45700000      39.81100000      25.44700000 
N      41.45200000      40.69400000      23.37700000 
H      35.85800000      41.98100000      27.38500000 
H      36.91200000      39.27100000      27.42900000 
H      38.00800000      41.97200000      28.54100000 
H      38.94000000      40.40700000      28.62700000 
H      38.74900000      40.21200000      26.13800000 
H      37.81900000      41.70800000      25.99600000 
H      39.71100000      43.03800000      26.67700000 
H      40.61000000      41.67400000      27.23900000 
H      40.28900000      42.59200000      24.52100000 
H      41.29800000      39.81400000      26.44200000 
H      41.85000000      39.01900000      25.06700000 
H      41.07100000      41.46000000      22.65300000 
H      41.88000000      39.89800000      23.03200000 
N      35.85000000      40.44000000      30.35600000 
C      35.38200000      40.25100000      31.72700000 
C      34.48100000      39.03100000      31.52400000 
O      34.53800000      37.92800000      32.41100000 
C      34.83300000      41.26600000      32.34700000 
O      35.90100000      42.28200000      32.65200000 
H      35.60900000      41.51400000      29.99000000 
H      36.35200000      39.68300000      32.16700000 
H      34.08200000      41.68200000      31.99400000 
H      34.64100000      40.96100000      33.41900000 
H      35.91300000      42.89800000      31.77400000 
N      33.41700000      39.18400000      30.68300000 
C      32.47500000      37.98700000      30.48100000 
C      32.82900000      36.80700000      30.17800000 
O      32.60500000      35.72500000      30.40700000 
C      31.25300000      38.60000000      29.68300000 
H      33.33000000      39.85500000      30.19100000 
H      32.08300000      37.75200000      31.55900000 
H      30.47600000      37.77200000      29.67700000 
H      30.79400000      39.42400000      30.23700000 
H      31.54700000      38.81400000      28.81500000 
N      34.03200000      36.75700000      28.97600000 
C      34.62600000      35.64400000      28.57500000 
C      35.44400000      35.17900000      29.78200000 
O      35.35900000      33.65800000      29.86000000 
C      35.40000000      35.83900000      27.36800000 
C      34.78600000      36.20900000      25.98700000 
C      36.23200000      34.58300000      26.85700000 
C      35.23600000      36.77100000      24.97200000 
H      34.20700000      37.71200000      28.65900000 
H      33.80900000      34.87500000      28.29300000 
H      36.16700000      36.72500000      27.54200000 
H      33.94700000      35.43500000      25.86200000 
H      33.79800000      37.16700000      26.50400000 
H      36.82000000      34.76000000      26.07600000 
H      37.02800000      34.37200000      27.77800000 
H      35.65000000      33.79800000      26.83400000 
H      34.70900000      37.10600000      24.14900000 
H      35.99500000      37.64600000      25.19600000 
H      36.00300000      35.99400000      24.47600000 
N      36.18600000      35.73000000      30.52500000 
C      36.72400000      35.35700000      31.54600000 
C      35.93700000      34.35500000      32.75000000 
O      36.20600000      33.61700000      33.04600000 
C      37.63700000      36.29300000      32.30600000 
C      38.59200000      35.75300000      33.62600000 
O      38.03700000      35.96600000      34.56100000 
N      39.56000000      35.17100000      33.34400000 
H      36.22600000      36.76800000      30.30300000 
H      37.58600000      34.35400000      31.23900000 
H      38.44600000      36.74000000      31.49700000 
H      37.05800000      37.11700000      32.61500000 
H      40.11100000      34.79100000      33.97400000 
H      40.00600000      35.01700000      32.24300000 
N      33.00800000      33.24000000      32.08400000 
C      32.55400000      31.89900000      31.39300000 
C      33.58400000      30.83400000      31.45400000 
O      33.40500000      29.84100000      31.75600000 
C      32.01500000      32.18100000      29.92500000 
C      31.37400000      31.09600000      29.33400000 
C      30.20300000      30.33100000      30.16200000 
C      30.89000000      31.43600000      27.93100000 
H      33.04500000      33.97100000      31.41700000 
H      31.70900000      31.52300000      32.09400000 
H      31.19600000      32.96500000      30.11600000 
H      32.70500000      32.59000000      29.44900000 
H      32.15400000      30.18900000      29.16000000 
H      29.71100000      29.51900000      29.47100000 
H      30.51900000      29.93700000      30.98300000 
H      29.43400000      31.07800000      30.26400000 
H      30.50900000      30.52300000      27.30800000 
H      30.07300000      32.11800000      27.98600000 
H      31.68400000      31.88100000      27.32900000 
N      34.81300000      31.08700000      31.16800000 
C      36.03900000      30.44700000      31.30700000 
C      36.04000000      29.74800000      32.41400000 
O      36.34200000      28.35200000      32.63200000 
C      37.23200000      30.94200000      30.64300000 
C      37.28900000      31.20700000      29.23100000 
C      38.56700000      30.15600000      31.17200000 
C      38.43200000      31.89300000      28.53200000 
H      35.00600000      32.23300000      30.82100000 
H      35.71900000      29.41200000      30.43200000 
H      37.32700000      31.91800000      31.16800000 
H      37.33300000      30.14700000      28.72200000 
H      36.38100000      31.61600000      28.88600000 
H      39.40400000      30.64300000      30.83800000 
H      38.59500000      30.11000000      32.23600000 
H      38.50600000      29.20500000      30.79000000 
H      38.39400000      32.20100000      27.71800000 
H      38.52500000      32.98900000      29.23100000 
H      39.45200000      31.47400000      28.82300000 
N      33.58800000      26.81500000      32.80700000 
C      33.89200000      25.82100000      32.00600000 
C      34.96700000      24.88800000      32.53400000 
O      34.98200000      23.57100000      32.41800000 
C      34.01500000      26.20400000      30.66800000 
C      32.76300000      26.78700000      29.90800000 
C      33.11800000      27.33900000      28.54400000 
C      31.41400000      26.13600000      30.07200000 
H      33.75900000      27.79900000      32.55000000 
H      32.92500000      24.98200000      32.13300000 
H      34.86500000      26.72800000      30.48800000 
H      34.18500000      25.17100000      29.95100000 
H      32.66600000      27.84000000      30.55900000 
H      32.31400000      27.82600000      28.10600000 
H      34.00400000      27.76800000      28.44200000 
H      33.18800000      26.26700000      27.89100000 
H      30.72600000      26.59000000      29.61200000 
H      31.59200000      25.06400000      29.57500000 
H      31.18700000      25.90200000      31.13500000 
H      30.84794458      20.79343273      24.67870441 
H      37.93410214      45.90051499      20.31647367 
H      35.11769290      41.86025068      14.07814233 
H      33.70642022      42.15945985      17.08840014 
H      32.73791560      37.02204664      16.28238908 
H      30.33482036      37.29968059      18.60292192 
H      28.93817066      33.48541077      15.88106320 
H      26.62098842      32.26399590      19.72427090 
H      27.15023098      27.86305897      17.80419259 
H      25.40067773      26.33244265      20.11971305 
H      27.70436205      38.11467424      29.27073631 
H      26.84091425      37.68577895      25.60242802 
H      33.94549450      46.14616898      24.85929560 
H      34.30920814      44.67421013      29.05227021 
H      32.42525749      42.56422648      27.57047045 
H      35.07308844      34.64962100      33.15847923 
H      32.42054883      33.45911713      32.72966927 
H      35.80442673      30.18550938      33.28180803 
H      32.70430308      26.80421247      32.97718633 
H      35.75657857      25.26023271      33.02186115 
