446
Properties=species:S:1:pos:R:3 pbc="F F F"
N      25.89300000      22.29000000      23.79900000 
C      26.93800000      22.39000000      22.99000000 
C      28.12900000      21.30600000      23.54800000 
O      28.00400000      20.78900000      24.37700000 
C      27.65200000      23.92900000      23.34600000 
H      25.76400000      22.28600000      24.53800000 
H      26.87900000      22.39100000      21.86200000 
H      28.65400000      23.95200000      22.76700000 
H      26.97600000      24.58500000      22.89800000 
H      27.88400000      23.86700000      24.29100000 
N      34.92300000      22.24000000      21.68000000 
C      34.30800000      23.16200000      20.79600000 
C      33.96400000      24.38100000      21.91300000 
O      34.76200000      25.73000000      21.09300000 
C      33.08200000      23.01300000      19.72800000 
C      32.95600000      23.82400000      19.02800000 
C      32.07100000      23.23400000      17.68900000 
O      30.50500000      23.98900000      17.74700000 
O      32.09800000      22.66600000      17.24300000 
H      33.94400000      21.27200000      21.64600000 
H      35.20400000      23.41000000      20.17300000 
H      33.36800000      21.92300000      19.36200000 
H      32.23100000      22.76300000      20.53800000 
H      32.38400000      24.86900000      19.30300000 
H      33.68400000      24.16500000      18.33900000 
N      33.53200000      24.73000000      22.55900000 
C      33.34700000      25.38300000      23.57400000 
C      34.13600000      25.88400000      23.87700000 
O      34.79200000      27.58600000      24.18800000 
C      31.87600000      25.40100000      24.39100000 
C      31.37100000      26.73500000      25.34100000 
C      30.99600000      27.95100000      24.14600000 
C      30.13800000      26.36700000      26.04100000 
H      32.81600000      23.50000000      23.02300000 
H      32.90500000      26.60500000      22.71800000 
H      31.11100000      25.17400000      23.88400000 
H      32.26800000      24.66000000      25.15300000 
H      32.42100000      27.06500000      25.88600000 
H      30.69700000      28.72400000      25.02800000 
H      31.85400000      28.28100000      23.78100000 
H      30.25300000      27.64600000      23.80100000 
H      30.16800000      27.01700000      26.76800000 
H      29.66200000      26.00400000      25.69600000 
H      30.77200000      25.42600000      26.93100000 
N      36.73700000      27.72500000      21.65900000 
C      36.21700000      29.34700000      20.94600000 
C      36.46800000      30.03000000      22.23100000 
O      36.77500000      31.29700000      21.74200000 
C      34.69700000      28.82800000      20.59900000 
C      33.96100000      30.39200000      20.29900000 
C      34.49700000      30.95300000      19.33300000 
C      32.34800000      30.16300000      20.22300000 
H      35.88400000      27.03700000      21.66200000 
H      36.60900000      29.39300000      20.33400000 
H      34.41800000      28.39700000      20.06500000 
H      34.01900000      28.53500000      21.72800000 
H      34.01900000      31.05200000      21.27300000 
H      34.01900000      31.95300000      18.90200000 
H      35.62500000      31.31600000      19.30100000 
H      34.49200000      30.37500000      18.28700000 
H      32.00600000      30.89100000      20.07400000 
H      32.34500000      29.42500000      19.36600000 
H      32.00200000      29.68200000      20.99200000 
N      36.38500000      29.65800000      23.33300000 
C      36.80200000      30.95500000      24.49900000 
C      38.05000000      31.37000000      24.52300000 
O      38.46800000      32.05900000      24.79900000 
C      35.95300000      30.05600000      25.69700000 
S      34.61000000      30.23300000      26.32600000 
H      35.93500000      29.17400000      23.68500000 
H      36.18600000      31.83100000      24.26800000 
H      36.45200000      29.15000000      25.99900000 
H      36.83500000      30.91900000      26.34300000 
H      33.83900000      31.52700000      26.50000000 
N      39.18500000      33.30100000      21.17600000 
C      38.40600000      34.81700000      21.37700000 
C      39.20800000      35.63000000      22.08300000 
O      39.05200000      37.03600000      21.65600000 
C      37.08300000      34.73400000      21.82300000 
H      38.26600000      32.61100000      21.69600000 
H      38.22500000      35.08600000      20.23800000 
H      36.44900000      35.66000000      21.85400000 
H      36.26000000      33.98900000      21.28500000 
H      36.97300000      34.26900000      22.92300000 
N      33.46100000      42.63000000      17.16800000 
C      32.36800000      42.16100000      18.06700000 
C      31.17200000      41.35500000      17.42500000 
O      30.60300000      40.39500000      17.87900000 
C      31.68900000      43.56200000      18.42800000 
C      32.80600000      44.48100000      19.15700000 
C      32.17100000      45.46000000      20.14300000 
N      31.67900000      46.49100000      19.37100000 
C      31.89600000      47.56700000      19.02000000 
N      33.89200000      47.35400000      19.19800000 
N      32.03600000      48.56900000      18.26600000 
H      33.74200000      43.03000000      16.90500000 
H      32.51900000      41.54500000      18.75700000 
H      31.59500000      44.09600000      17.74100000 
H      30.99000000      43.30300000      18.87800000 
H      33.19100000      43.32700000      20.28400000 
H      33.54200000      44.49300000      18.96600000 
H      31.24100000      44.90100000      20.76600000 
H      32.83600000      45.69500000      20.96400000 
H      30.71700000      46.52500000      19.34900000 
H      34.20100000      46.79900000      19.52800000 
H      34.19800000      48.42000000      18.67700000 
H      30.59200000      48.38800000      18.31900000 
H      32.10300000      49.15900000      18.00200000 
N      30.97500000      41.75800000      15.64400000 
C      30.09900000      41.13300000      15.35000000 
C      30.31800000      39.63300000      15.05200000 
O      29.21900000      38.47800000      15.22200000 
C      29.35300000      41.76100000      13.67900000 
O      29.07600000      42.96900000      14.45200000 
C      28.68600000      41.09000000      13.04300000 
H      31.41900000      42.37700000      15.53400000 
H      28.96700000      40.99600000      15.81300000 
H      30.70800000      41.87200000      13.31800000 
H      29.18900000      43.73900000      13.51300000 
H      28.48300000      41.61300000      12.14400000 
H      29.10800000      40.03600000      12.59300000 
H      27.71100000      40.84500000      13.61100000 
N      31.50500000      39.33900000      14.48900000 
C      32.06000000      37.71300000      14.41500000 
C      31.91400000      37.02300000      15.52700000 
O      31.09000000      35.56800000      15.30400000 
C      33.16700000      37.77900000      13.59700000 
C      33.67000000      36.31100000      13.57300000 
C      33.19800000      38.58000000      12.28800000 
H      32.25200000      39.90000000      14.37600000 
H      30.94700000      37.29100000      13.48100000 
H      33.91200000      38.38100000      14.06900000 
H      34.83500000      36.34700000      12.98500000 
H      34.10400000      35.88100000      14.58800000 
H      33.23000000      35.62200000      13.15400000 
H      34.03300000      38.29800000      11.64300000 
H      32.36300000      37.53600000      11.46900000 
H      32.66000000      39.14800000      12.05900000 
N      32.41900000      37.65500000      16.87300000 
C      32.43300000      36.62500000      17.79500000 
C      30.99500000      36.13600000      18.43400000 
O      30.66300000      35.58200000      18.99500000 
C      33.51400000      36.92500000      18.74400000 
C      33.67600000      36.30900000      20.13600000 
C      34.71900000      37.05000000      18.09100000 
H      32.68100000      38.26000000      16.64000000 
H      32.77200000      35.63100000      17.48800000 
H      33.31500000      38.23700000      19.12000000 
H      34.17700000      36.54100000      20.66300000 
H      32.61700000      36.23800000      20.63800000 
H      33.73900000      35.14500000      19.82900000 
H      35.75900000      37.32700000      18.86700000 
H      35.16200000      35.92700000      17.79300000 
H      34.99300000      37.72200000      17.18600000 
N      30.09800000      37.30600000      18.45100000 
C      28.75700000      37.40500000      19.02300000 
C      28.17600000      35.90500000      17.72900000 
O      27.32000000      35.28800000      18.76500000 
C      27.94900000      38.73600000      18.94800000 
C      26.62600000      38.16200000      19.33000000 
C      25.79500000      39.83300000      19.14600000 
O      25.67900000      40.11100000      18.03400000 
N      25.00400000      40.23700000      20.25100000 
H      30.33800000      38.55900000      18.00700000 
H      28.82500000      36.90100000      19.88200000 
H      28.45300000      39.28700000      19.14200000 
H      27.81300000      38.83100000      17.62700000 
H      26.14600000      37.78200000      19.11200000 
H      26.77000000      38.26300000      20.46900000 
H      25.25900000      39.83800000      21.22300000 
H      24.55100000      40.91900000      20.06700000 
N      28.22000000      36.20800000      16.87500000 
C      27.62000000      35.03300000      15.91700000 
C      28.07200000      33.75400000      16.24900000 
O      27.26200000      32.78000000      16.33500000 
C      27.85600000      35.40700000      14.52700000 
C      26.90700000      36.85900000      14.25400000 
C      27.31000000      37.12900000      12.29400000 
N      26.06700000      38.17500000      12.17900000 
C      26.45700000      38.64400000      11.01200000 
N      27.24800000      38.59500000      10.02200000 
N      25.21800000      39.92000000      10.65300000 
H      28.74100000      36.89300000      16.19100000 
H      26.60700000      35.04400000      16.13400000 
H      28.78200000      35.67000000      14.16900000 
H      27.48500000      34.40000000      13.77300000 
H      25.73700000      36.23800000      14.05100000 
H      26.96800000      37.25700000      14.41600000 
H      28.05100000      37.34500000      12.50500000 
H      27.00900000      36.02200000      11.87200000 
H      25.46600000      38.17700000      12.69700000 
H      27.90600000      37.83600000      10.28600000 
H      27.33000000      39.01300000       9.46300000 
H      24.71600000      39.84300000      11.43800000 
H      25.48300000      40.18100000       9.97500000 
N      29.55900000      33.73200000      16.30700000 
C      30.06300000      32.24300000      16.61200000 
C      29.74700000      31.84400000      17.87600000 
O      29.15400000      30.30300000      17.87500000 
C      31.77300000      32.47500000      16.78200000 
C      32.18500000      32.63500000      15.46300000 
C      34.16500000      32.71400000      15.44600000 
O      34.21900000      33.67200000      16.48700000 
N      34.51800000      32.33400000      14.90300000 
H      30.26000000      34.38600000      16.31400000 
H      29.89100000      31.72400000      15.93900000 
H      31.86700000      33.19600000      17.35300000 
H      32.02600000      31.60500000      17.16700000 
H      32.10300000      31.77600000      14.78700000 
H      31.93000000      33.39000000      14.99200000 
H      34.18600000      31.38700000      13.87300000 
H      35.61900000      32.29900000      14.74300000 
N      29.30900000      32.51800000      19.07100000 
C      28.80200000      31.85000000      20.49700000 
C      27.39200000      31.20500000      20.06700000 
O      27.20100000      30.67300000      20.36600000 
C      29.00700000      33.03500000      21.36900000 
C      30.28400000      32.67400000      22.41700000 
C      30.37500000      32.11800000      22.86800000 
C      31.16800000      34.23900000      21.91700000 
C      31.78200000      31.87500000      23.97400000 
C      32.50300000      33.55200000      22.93100000 
C      32.54200000      33.08200000      23.40000000 
H      29.74200000      33.70100000      19.18000000 
H      29.33300000      31.07600000      20.50400000 
H      28.64200000      34.09300000      21.06600000 
H      28.05200000      32.70100000      22.09700000 
H      29.56800000      31.17200000      23.30000000 
H      31.00500000      34.49700000      21.48200000 
H      31.82600000      30.93500000      24.62500000 
H      33.04200000      34.63600000      22.58600000 
H      33.56100000      32.78800000      24.17100000 
N      26.56600000      32.31600000      19.27700000 
C      25.09200000      32.02300000      19.13500000 
C      25.14100000      30.81700000      18.56600000 
O      23.87000000      30.16300000      18.73800000 
C      24.35400000      33.30500000      18.68200000 
O      24.83300000      33.09400000      16.92800000 
H      26.89500000      33.34600000      19.00800000 
H      24.77000000      31.95100000      20.20200000 
H      23.52600000      32.97100000      18.69800000 
H      24.61600000      34.13800000      18.87500000 
H      25.53200000      33.14600000      16.94400000 
N      25.69400000      30.35400000      17.66700000 
C      25.79100000      29.11400000      16.84300000 
C      25.96300000      27.50500000      17.44600000 
O      25.78600000      26.95500000      16.83300000 
C      26.42200000      29.51300000      15.22600000 
C      25.83700000      30.13000000      14.69100000 
C      26.47300000      30.74700000      13.20400000 
O      27.13300000      29.93100000      12.90500000 
O      26.21300000      31.84900000      12.68900000 
H      26.63900000      30.87800000      17.35500000 
H      24.35400000      29.09700000      16.55000000 
H      27.25700000      29.55100000      15.56800000 
H      26.31400000      28.45200000      14.92000000 
H      24.62200000      30.09800000      14.26700000 
H      25.46700000      31.35400000      15.10400000 
N      26.49200000      28.14100000      18.28900000 
C      27.03700000      26.49500000      19.30500000 
C      26.10200000      25.76900000      19.71700000 
O      26.22400000      24.35100000      19.95800000 
C      28.39300000      26.67600000      20.01300000 
C      29.39100000      27.08100000      19.23200000 
C      28.08100000      27.15700000      21.29200000 
H      26.86400000      28.56700000      19.05400000 
H      27.40300000      25.82800000      18.04900000 
H      28.60700000      25.61400000      20.18000000 
H      30.34800000      27.17000000      19.72400000 
H      29.64900000      26.77500000      18.24000000 
H      29.30400000      28.31500000      18.95400000 
H      29.03900000      27.25800000      21.85100000 
H      27.87100000      28.34000000      21.15600000 
H      27.39700000      26.83800000      21.88100000 
N      24.62200000      26.57000000      20.35000000 
C      24.05400000      25.54300000      20.90800000 
C      22.58900000      25.49900000      19.93600000 
O      22.32000000      25.68000000      19.48600000 
C      23.51000000      26.77000000      22.05500000 
C      24.16100000      26.99900000      22.97200000 
C      24.61100000      25.90400000      24.11400000 
C      25.01200000      28.20300000      23.64200000 
N      25.73300000      26.93200000      24.88600000 
C      25.68800000      28.27400000      24.29600000 
C      24.67100000      29.58900000      22.75400000 
C      26.77700000      28.79500000      25.17600000 
C      25.66300000      30.55100000      23.31800000 
C      26.42400000      30.53700000      24.31400000 
H      24.81600000      27.27500000      19.92800000 
H      24.31600000      24.97600000      21.52300000 
H      23.03100000      27.53200000      21.55600000 
H      22.24500000      26.12000000      22.54400000 
H      24.54100000      25.08900000      24.19200000 
H      26.23500000      26.21400000      25.76300000 
H      24.13400000      29.67700000      22.04600000 
H      27.25500000      28.89700000      25.63200000 
H      25.45000000      31.49300000      22.95700000 
H      27.10700000      31.04000000      24.72200000 
N      23.02200000      23.79300000      19.85800000 
C      21.91900000      23.17500000      18.85700000 
C      21.20800000      22.16400000      19.46400000 
O      21.38700000      21.71300000      20.75200000 
C      23.19700000      22.45600000      18.14900000 
C      24.07700000      23.33400000      17.14200000 
C      22.88200000      23.94700000      15.77200000 
C      23.91900000      25.02300000      14.90600000 
N      25.00600000      23.71300000      14.23700000 
H      23.31200000      23.35200000      20.26900000 
H      21.59000000      23.73000000      18.46700000 
H      23.61700000      21.80500000      18.53500000 
H      22.32800000      21.56800000      17.19500000 
H      24.18200000      23.85300000      17.50100000 
H      24.55400000      22.58700000      16.58500000 
H      22.52900000      22.99500000      15.26800000 
H      22.33400000      24.31600000      16.23200000 
H      23.21300000      25.07700000      14.20600000 
H      24.26500000      25.41400000      15.35500000 
H      25.42900000      24.68800000      13.39800000 
H      25.55800000      23.69100000      14.76200000 
H      24.50800000      23.23100000      13.69300000 
N      27.24800000      38.12800000      28.38900000 
C      27.96000000      37.65200000      27.42900000 
C      27.73200000      38.23000000      26.18300000 
O      28.08900000      39.18200000      25.27500000 
C      28.92600000      36.71900000      27.35400000 
C      29.82800000      36.22800000      26.03000000 
C      30.65900000      37.21900000      26.17000000 
C      30.17600000      34.88500000      25.96800000 
H      27.19300000      37.09100000      28.99000000 
H      28.97100000      38.65100000      27.50400000 
H      29.38200000      36.24300000      28.15300000 
H      27.92400000      35.65700000      27.29800000 
H      29.30600000      36.35000000      25.29000000 
H      31.81800000      36.94800000      25.20000000 
H      30.69700000      38.28000000      25.99500000 
H      31.61700000      37.11100000      27.08800000 
H      30.85900000      34.60400000      25.36400000 
H      30.89400000      34.57900000      27.23900000 
H      29.49300000      34.07400000      26.15500000 
N      26.30300000      37.67200000      25.73900000 
C      25.70300000      38.06000000      24.55800000 
C      25.26900000      39.73700000      24.57500000 
O      25.32300000      40.09300000      23.31800000 
C      24.44900000      37.21200000      24.26900000 
C      24.70900000      35.75000000      23.72200000 
C      23.67400000      34.63600000      23.47200000 
C      25.50400000      35.78600000      22.45200000 
H      26.04900000      37.05500000      26.25400000 
H      26.40800000      37.95100000      23.67100000 
H      23.95000000      37.11900000      25.02300000 
H      23.95900000      37.53400000      23.45400000 
H      25.50500000      35.23000000      24.76200000 
H      23.73500000      34.01400000      23.61200000 
H      22.91300000      34.93500000      24.90600000 
H      22.97200000      35.29200000      23.05200000 
H      25.83900000      34.37100000      22.25400000 
H      25.16400000      35.96600000      21.76300000 
H      26.60900000      36.01400000      22.57200000 
N      28.29800000      42.29200000      23.66300000 
C      28.76700000      42.55900000      22.35700000 
C      27.87000000      43.70100000      21.62300000 
O      28.44700000      44.14600000      20.36700000 
C      28.65100000      41.40800000      21.32700000 
C      29.62200000      40.43900000      21.58500000 
C      30.85100000      40.67900000      21.42400000 
C      29.29300000      38.76100000      22.46600000 
C      32.28600000      39.63800000      21.87000000 
C      30.37100000      38.48000000      22.50000000 
C      31.34300000      38.05000000      22.31200000 
H      27.77500000      41.50400000      23.88600000 
H      29.57900000      43.12100000      22.24100000 
H      27.58200000      40.90300000      21.47300000 
H      28.77600000      41.59000000      20.55900000 
H      31.36500000      41.40000000      21.16400000 
H      28.17400000      38.88900000      22.45500000 
H      32.88000000      39.70000000      21.62500000 
H      29.82600000      37.01300000      22.95300000 
H      32.19700000      37.70200000      22.52700000 
N      26.60000000      44.27200000      21.90600000 
C      25.63100000      44.74100000      21.61700000 
C      25.57200000      46.41600000      21.54100000 
O      25.21300000      46.91800000      21.90900000 
C      24.42600000      44.35000000      21.69000000 
C      22.96200000      44.89600000      20.58000000 
O      23.52500000      45.24900000      19.82400000 
O      22.00000000      44.78400000      21.15600000 
H      26.27600000      43.59600000      22.94900000 
H      25.86800000      44.43100000      19.99400000 
H      24.15900000      43.34400000      21.67300000 
H      23.95000000      44.62400000      22.72800000 
N      34.11700000      36.82300000      29.04800000 
C      34.70600000      35.83100000      28.83000000 
C      35.37800000      35.24200000      29.63900000 
O      35.48100000      33.75100000      29.97400000 
C      35.56400000      35.96800000      27.42300000 
C      34.68500000      36.43100000      26.21200000 
C      36.38800000      34.69700000      27.08800000 
C      35.60400000      36.67200000      25.03800000 
H      34.30200000      37.70100000      28.73500000 
H      33.84200000      34.96800000      28.40400000 
H      36.16300000      36.83600000      27.52400000 
H      34.09000000      35.46200000      25.96700000 
H      33.95400000      37.05400000      26.48900000 
H      37.01300000      34.93500000      26.18400000 
H      37.19100000      34.58700000      27.81800000 
H      35.80200000      33.89600000      26.91100000 
H      34.62700000      37.16300000      24.12300000 
H      35.98100000      37.67200000      25.28300000 
H      35.89900000      36.17800000      24.61600000 
N      33.15600000      33.16400000      31.71800000 
C      32.53200000      31.96700000      31.41100000 
C      33.47500000      30.80600000      31.67900000 
O      33.41000000      29.60600000      31.98500000 
C      32.29500000      32.10800000      30.26100000 
C      31.54300000      30.90200000      29.42300000 
C      30.06700000      30.51100000      30.14500000 
C      30.70000000      31.40900000      28.06700000 
H      33.21500000      34.06500000      31.46600000 
H      31.89200000      31.50500000      32.19300000 
H      31.19300000      33.01000000      30.16900000 
H      32.92800000      32.59400000      29.50100000 
H      32.16700000      30.27600000      29.34800000 
H      29.82400000      29.52400000      29.67700000 
H      30.71300000      29.84700000      31.28400000 
H      29.64200000      31.00500000      30.40700000 
H      30.68200000      30.59700000      27.55400000 
H      30.41900000      31.93600000      28.13000000 
H      31.84300000      31.81400000      27.48000000 
H      25.32176777      22.96632586      23.63689796 
H      28.97623048      21.18450201      23.03085518 
H      35.71917772      21.98765972      21.34470099 
H      34.96486432      25.39492623      24.14864458 
H      37.40107390      27.37701380      21.16109293 
H      38.77486481      30.79712396      24.14039831 
H      39.33594395      33.15447578      20.30093053 
H      39.80506855      35.25220338      22.79065731 
H      34.25707301      42.38968586      17.51226279 
H      20.48750220      21.68731452      18.96035938 
H      27.69448854      38.79854130      28.79027590 
H      25.05231845      40.18864755      25.44048460 
H      28.99738286      42.22437521      24.22539711 
H      26.12448837      46.90568012      20.86648537 
H      33.26989589      36.73986604      28.75559039 
H      36.00332720      35.74807547      30.23301473 
H      32.95631324      33.39866859      32.56360975 
H      34.46397376      30.94062161      31.61729161 
