 524 
 
N                46.4399765348       37.6223493971       52.1770789958
C                46.6880631195       39.0448401530       52.1556554494
C                48.1697626972       39.3444039244       51.9175461919
O                49.0569972553       38.5635160676       52.2383190356
C                46.1403955606       39.6984573597       53.4452455045
C                46.9544695648       39.2697985324       54.6695146180
C                44.6603035229       39.3429978098       53.6058411880
C                46.4299468331       39.8798593269       55.9643574042
H                46.8352866445       37.0749868667       52.9310264502
H                46.1404698525       39.4393643587       51.2946488445
H                46.2384497698       40.7791892275       53.3040822319
H                46.9334331881       38.1816800794       54.7502245805
H                47.9919879424       39.5678482849       54.5114680823
H                44.1739541224       40.0415888187       54.2791742407
H                44.1567517502       39.3875921271       52.6440212585
H                44.5511852611       38.3370926123       54.0017964350
H                47.1044021639       39.6547454639       56.7860088296
H                46.3471007327       40.9594965760       55.8668030087
H                45.4514560819       39.4764471724       56.2038353505
N                48.3895478595       40.5384023730       51.3518738835
C                49.7091747842       41.0459992450       51.0567965204
C                49.6645795305       42.5677687693       51.1331547031
O                48.6324187356       43.2126841057       51.0185566352
C                50.1738774549       40.6041252274       49.6419379946
C                51.6512985512       40.2645188168       49.5506724895
C                52.1342392405       40.0047067636       48.0815342886
O                53.1255857180       39.2674661364       47.9541274593
O                51.5220386823       40.5970031930       47.1685479025
H                47.6114016751       41.1307019198       51.0774537959
H                50.3971190358       40.6343436937       51.8059223312
H                49.5949145280       39.7179794522       49.3728864979
H                49.9517245232       41.3799473868       48.9097372722
H                52.2691006258       41.0966826696       49.9022479758
H                51.8930075257       39.3855766695       50.1524465192
N                50.8607639513       43.1570236634       51.2722556800
C                51.0280871177       44.5981641974       51.2661913390
C                52.1936355696       44.9362533756       50.3306625312
O                53.2047474509       44.2308572106       50.3311941410
C                51.2076356995       45.1583258296       52.6895741807
C                52.2486786270       44.5014378057       53.5840736604
O                52.2005278491       44.6499918231       54.8019406687
N                53.1940728159       43.7586045520       53.0050851684
H                51.6952447951       42.5928494715       51.3450977440
H                50.1025159727       45.0196399013       50.8612976053
H                51.4441110250       46.2231231590       52.6284530335
H                50.2546989099       45.0747692233       53.2216774384
H                53.9018077095       43.3502612371       53.5938791896
H                53.3553901736       43.7754422240       51.9971887769
N                52.0342464334       45.9744844659       49.5207352757
C                53.0516587241       46.3348015298       48.5419127638
C                53.3151353345       47.8391349184       48.6969297364
O                52.5568490703       48.6974139163       48.2744766516
C                52.5863219164       45.9490009560       47.1290344954
C                52.5346972878       44.4186134330       46.9682570850
C                51.3308228655       43.8998988157       46.1676379136
N                51.5643557611       43.8764230516       44.7384955945
C                51.9653254194       42.8256811140       44.0176841252
N                52.1487761157       43.0131558028       42.7042435981
N                52.1100990761       41.6118742533       44.5226890923
H                51.2094158948       46.5725350553       49.5696745152
H                53.9507804452       45.7646411405       48.7972772034
H                51.6022943949       46.3913549356       46.9715736929
H                53.2839139943       46.3959107069       46.4218402422
H                53.4543583809       44.0583872813       46.5069126723
H                52.4837627226       43.9566527322       47.9528130676
H                51.0894972655       42.8908959928       46.5054093762
H                50.4661911813       44.5416670219       46.3516822868
H                51.6050331053       44.7850960567       44.2953855335
H                52.1038399359       43.9352878141       42.3006621634
H                52.4964104218       42.2648148240       42.1267590884
H                51.9494560293       41.3581085577       45.5001499446
H                52.3657180187       40.8502906504       43.9145607211
N                54.4175675814       48.1349584269       49.4008292139
C                54.8436626736       49.5080545377       49.5646645473
C                55.3025991778       50.0750350914       48.2157126552
O                55.8466863852       49.3803345272       47.3746057856
C                55.9959036822       49.6048234187       50.5769227645
C                55.4693546226       49.3461812553       51.9623996767
C                54.9063391726       50.3884433935       52.6889812327
C                55.4675444192       48.0689376207       52.5069152775
C                54.3174671499       50.1532761207       53.9173397960
C                54.8833386049       47.8340869852       53.7397971264
C                54.2912504354       48.8712612831       54.4388090114
H                55.0825807084       47.4166165123       49.6450186389
H                53.9907718182       50.0974008150       49.9149998403
H                56.7695263434       48.8870236067       50.3024774583
H                56.4163486589       50.6102608736       50.5198352424
H                54.9184725575       51.3943777226       52.2944552543
H                55.9225814487       47.2531216974       51.9681680364
H                53.8738775235       50.9742205263       54.4613815058
H                54.8752707108       46.8390233982       54.1575905285
H                53.8338436725       48.6957203166       55.3969943330
N                55.0809252169       51.3885285150       48.0762151676
C                55.6403715744       52.1921226200       47.0146653170
C                56.2145692785       53.4430593358       47.6809091121
O                55.6667393268       53.9609796753       48.6433067474
C                54.5667674650       52.6462699236       45.9904180684
C                53.8821909125       51.4328370724       45.3476150594
C                55.1939439697       53.5395883973       44.9201749726
C                52.5817610005       51.8118839527       44.6467148005
H                54.6420235408       51.9325756685       48.8082013092
H                56.4060281025       51.5952975569       46.5100315951
H                53.8205121614       53.2262991481       46.5465179897
H                54.5695811556       50.9753170464       44.6333517369
H                53.6573349396       50.6967322627       46.1212193173
H                54.4567447042       53.7750202827       44.1579848404
H                55.5352578812       54.4826414797       45.3405750017
H                56.0313672100       53.0354481101       44.4426691816
H                52.0885870410       50.9257352943       44.2571943684
H                51.9119429281       52.3119036816       45.3450284730
H                52.7615110960       52.4899335872       43.8165780306
N                51.1549951490       53.7286514009       50.0456461016
C                51.3209992337       52.3066309843       49.8260089605
C                49.9772029533       51.6621207691       49.4645551146
O                48.9221975519       52.2537981444       49.6498803922
C                51.8767143862       51.6665105293       51.1198002832
C                50.9124077721       51.8207707754       52.2639732343
C                50.9087070853       52.9845773163       53.0253245572
C                49.9994852866       50.8198116887       52.5677298588
C                49.9984224216       53.1537069623       54.0543425321
C                49.0932523792       50.9880144392       53.5996787281
C                49.0850680695       52.1552105438       54.3438731880
H                50.5200981958       53.9700555031       50.7944628635
H                52.0283609504       52.1883876528       48.9996745923
H                52.0678769345       50.6086453863       50.9390681367
H                52.8107707252       52.1711917739       51.3723199385
H                51.6442347296       53.7514515961       52.8258834465
H                50.0036522556       49.9041004617       51.9935572215
H                49.9992819327       54.0730481879       54.6222044344
H                48.3884494767       50.2030512461       53.8262760901
H                48.3853208147       52.2826601522       55.1564383873
N                50.0437451525       50.4157402102       48.9713278593
C                48.8338759683       49.6927001980       48.6464236032
C                48.7977278171       48.3613665050       49.3879089558
O                49.8170015216       47.7869987439       49.7650421064
C                48.6560610902       49.5049601244       47.1177330571
C                48.9174345490       50.8338078421       46.4107500796
C                49.5652501321       48.4146807544       46.5551078357
H                50.9228003371       49.9313755248       48.8375151042
H                48.0118703761       50.3194595470       49.0092405317
H                47.6080495845       49.2273323669       46.9645898496
H                48.6115116310       50.7704355585       45.3710237957
H                48.3602951328       51.6337678530       46.8896679121
H                49.9744620879       51.0842995180       46.4480219311
H                49.5338860590       48.4500627211       45.4698119778
H                50.5901381276       48.5724063203       46.8836639401
H                49.2310411143       47.4336746604       46.8862078320
N                47.5730694462       47.8623812267       49.5870932110
C                47.3612480940       46.5735277422       50.2040278898
C                46.3763999419       45.7759806108       49.3552605323
O                45.5090615478       46.2970418180       48.6669305227
C                46.8782968293       46.6612603759       51.6697624267
C                47.8702483404       47.4714680437       52.5000994840
C                45.4775370834       47.2586044117       51.7671316096
H                46.7346233950       48.3226003912       49.2527636192
H                48.3272992317       46.0572861205       50.1981748865
H                46.8603073347       45.6354911774       52.0550186941
H                47.6294736756       47.3784310938       53.5565321288
H                48.8853391049       47.1101537108       52.3513420008
H                47.8263956617       48.5201463362       52.2167553179
H                45.1817769046       47.3363460716       52.8098673763
H                45.4501438894       48.2480404668       51.3196120948
H                44.7543017281       46.6338370822       51.2485491204
N                46.5885081086       44.4586004961       49.3889066500
C                45.7987311456       43.5537593889       48.5897473776
C                45.3526925350       42.3867787769       49.4549895087
O                46.0758080609       41.8686698123       50.2958280777
C                46.5955544815       43.0997235750       47.3344584544
C                47.6984331078       42.0814608581       47.6601774591
C                47.1963939206       44.3278950842       46.6448003800
C                47.2994246044       40.6484649758       47.3264000627
H                47.2644159745       44.0398842539       50.0176896041
H                44.9140429052       44.1098780073       48.2630332163
H                45.8702739868       42.6228691852       46.6688327784
H                48.5983585107       42.3291519924       47.0968944362
H                47.9452600608       42.1522855623       48.7178565484
H                47.6078294540       44.0332560150       45.6853424475
H                46.4445344650       45.0992854012       46.5063799024
H                47.9919242541       44.7450901921       47.2591097730
H                48.1463744427       39.9817191543       47.4696615618
H                46.4863838938       40.3164652907       47.9696743732
H                46.9797405988       40.5749190636       46.2904778307
N                44.1145749837       41.9410511262       49.2070862759
C                43.6289031981       40.7245510088       49.8119058273
C                43.0001655924       39.8781255818       48.7158234126
O                42.4574450691       40.3838574029       47.7404090028
C                42.6064900022       40.9646293859       50.9385583597
C                41.4287856404       41.8342302325       50.5122228227
C                40.1910879435       41.5883491467       51.3989292964
O                39.5499722187       42.5506793904       51.8418286563
O                39.8937370831       40.3720084077       51.5768544166
H                43.4547270375       42.4471425040       48.6271597646
H                44.5001402185       40.2168395760       50.2430821114
H                42.2235454269       39.9967695517       51.2729081713
H                43.1165096971       41.4411566917       51.7778725693
H                41.7000154774       42.8903630852       50.5061074853
H                41.1159467065       41.5735545101       49.4979539791
N                43.0734944892       38.5603382315       48.8967475248
C                42.3970211438       37.6077498572       48.0499654851
C                41.5088423569       36.7755309178       48.9770585005
O                41.9110121529       36.3586089187       50.0516453151
C                43.3407682436       36.6590196723       47.2936188063
C                44.1229188399       37.3754652042       46.1925490460
C                44.8502205256       36.3967537300       45.2708403294
N                45.6063322929       37.1306367882       44.2742703358
C                46.5073517257       36.6146333481       43.4555902359
N                47.0732972711       37.4187578127       42.5484493982
N                46.9805716705       35.3762016216       43.6302804927
H                43.6758639244       38.1570581437       49.6066475435
H                41.7973813995       38.1855300187       47.3386484730
H                44.0335887994       36.2021760017       48.0033440400
H                42.7354047604       35.8651028595       46.8500364709
H                43.4429892681       37.9831490692       45.5918345733
H                44.8584803736       38.0405101838       46.6478133951
H                45.5243788805       35.7834096688       45.8768439452
H                44.1302183092       35.7413551717       44.7598223951
H                45.2603828558       38.0548391209       43.9704928975
H                46.5919623393       38.3054207912       42.4019991010
H                47.4985877270       36.9961512190       41.7401880778
H                46.4747055267       34.7356541806       44.2166287410
H                47.6611747003       35.0017610862       42.9898171511
N                40.2684038166       36.5635488531       48.5238820011
C                39.3420563634       35.7282109681       49.2540837353
C                39.0187904766       34.4721622724       48.4344353640
O                38.8855244978       34.5040585119       47.2183207594
C                38.0174945247       36.4389459303       49.5707643911
C                38.1687732264       37.6890217293       50.4456741827
C                36.8060769594       38.0554433300       51.0512009920
C                36.6201929483       39.5284764461       51.3955330833
N                37.5199250458       39.9593023412       52.4876977659
H                39.9810915144       36.8777461867       47.6047160142
H                39.8601369109       35.4595175644       50.1792601921
H                37.5393805047       36.7133029809       48.6284738803
H                37.3751947898       35.7171106975       50.0796773952
H                38.9031686850       37.5044466456       51.2303929182
H                38.5513112447       38.5104946325       49.8388879115
H                36.0322844085       37.7986076356       50.3277164563
H                36.6394788951       37.4521816802       51.9442679922
H                36.8222028416       40.1520398882       50.5234829286
H                35.5853414256       39.6956523851       51.7033150446
H                37.2407007459       40.8781936889       52.8374520886
H                37.5123935346       39.2833432559       53.2554821296
H                38.5720274739       40.0941626873       52.1116880572
N                40.0637458648       38.8599430585       43.9419434851
C                40.9658471437       39.7722750275       44.6120992050
C                40.2199619470       41.0514775140       44.9953058454
O                39.2488849551       41.4517055975       44.3587319293
C                42.1562725221       40.2593106122       43.7593596135
C                42.8126045451       39.2189939286       42.8525232355
C                44.1453704882       39.8146066313       42.3217685699
O                44.0923713354       40.6631499104       41.4184859923
O                45.2037189731       39.4456429644       42.8808879254
H                39.7340752736       39.1466511609       43.0323997697
H                41.3179433611       39.2646414801       45.5139185868
H                41.8229613379       41.0892234024       43.1286329703
H                42.9038018305       40.6414279444       44.4611824424
H                43.0226400680       38.2915370552       43.3846324465
H                42.1809814108       38.9932163010       41.9919580468
N                40.7601092290       41.7455969386       46.0005278502
C                40.2449797558       43.0490166137       46.3859714363
C                41.4346211500       43.8699891530       46.8960786919
O                41.9364468435       43.7186356742       47.9967589463
C                39.1024744386       42.9351975710       47.4081411504
O                37.9278398284       42.4535289416       46.7794243642
C                38.8185385571       44.2816321254       48.0696389114
H                41.4516472021       41.3169470958       46.6102878599
H                39.8273275218       43.5123373222       45.4816698759
H                39.3944195456       42.2123441511       48.1858897471
H                38.1411028716       42.1593648119       45.8801644497
H                37.8677834120       44.2216347572       48.5886036073
H                39.5982377166       44.5094244360       48.7902608194
H                38.7642920118       45.0678288807       47.3217430244
N                41.9228941685       44.7098255688       45.9781965451
C                43.0231964078       45.6280269326       46.2099452409
C                42.4303712127       47.0053578531       46.5287699416
O                41.5858359310       47.5041560374       45.7968198663
C                43.8821697991       45.7051707509       44.9459893110
C                44.3061183813       44.3106162540       44.4907501786
C                45.2770015882       44.3645580288       43.3141626802
C                45.5936722200       42.9465660189       42.8625537199
N                46.5073256542       42.9328751298       41.6906799399
H                41.3984371958       44.8879645368       45.1339246561
H                43.5916447168       45.2558288576       47.0645317212
H                43.3006609339       46.2029680682       44.1677025379
H                44.7549799223       46.3188275739       45.1680001559
H                44.7726823085       43.7991807933       45.3306207516
H                43.4230504200       43.7339555661       44.2094516511
H                44.8093718129       44.9234668563       42.5036861621
H                46.1834617947       44.8813754629       43.6276542945
H                46.0532832728       42.3788331257       43.6726383703
H                44.6772131270       42.4324964411       42.5680362629
H                46.6230232746       41.9555152656       41.3874481556
H                46.0817209655       43.4573379282       40.9131689204
H                47.4190856871       43.3508170181       41.9266664399
N                42.8958057714       47.5819095487       47.6399924873
C                42.4524001529       48.8968699792       48.0410488243
C                43.6637548759       49.6317326263       48.6199086328
O                44.5987077205       49.0431579185       49.1375712271
C                41.3117042548       48.8583953944       49.0982920526
C                40.5519069804       50.1838404517       49.1256516391
C                40.3163341368       47.7338966488       48.8080373255
H                43.6710630773       47.1906529907       48.1693138312
H                42.0733320889       49.3913648848       47.1400280883
H                41.7778859955       48.6821758338       50.0739782680
H                39.7007317972       50.0994828057       49.7985637197
H                41.1773081844       51.0100161589       49.4500675027
H                40.1561830038       50.4006173533       48.1361168318
H                39.5348998972       47.7176247599       49.5683538799
H                39.8360897676       47.9029681662       47.8471767115
H                40.7966950565       46.7575938008       48.7768833924
N                43.6068932631       50.9630099313       48.5207676637
C                44.6077108958       51.8276601802       49.1023554923
C                44.0214935789       52.4851882821       50.3529867217
O                42.8132691638       52.6002777188       50.5211509501
C                45.0801329021       52.8327527415       48.0294328264
O                45.6128201354       52.0343513381       46.9942254267
C                46.1070953361       53.8379292046       48.5445754052
H                42.8054048820       51.4070105150       48.1002239075
H                45.4564106486       51.1939937183       49.3778643779
H                44.1913439264       53.3746230203       47.6625441967
H                45.9128501493       52.6108164982       46.2807358870
H                46.4526222452       54.4536524503       47.7167885979
H                45.6675195275       54.4928088161       49.2904157016
H                46.9719789775       53.3316267532       48.9698296839
N                44.9266405287       52.8761389536       51.2500825240
C                44.6117441149       53.7108588844       52.3911232305
C                45.7230068755       54.7672528487       52.4645782015
O                46.8722327870       54.4915275354       52.1764535388
C                44.6055853279       52.9026923290       53.6914274387
H                45.9178366283       52.7540245174       51.0794588942
H                43.6323845092       54.1621879199       52.2014300345
H                44.2928661262       53.5319975510       54.5186328047
H                43.9288740199       52.0591860841       53.5935884054
H                45.6087444219       52.5330498296       53.8938687608
N                45.3199779122       55.9864715978       52.8631494904
C                46.2447438080       57.1026800096       52.9100659953
C                46.8795128560       57.1472267343       54.3031845780
O                48.0735329518       57.0021175528       54.4897399108
C                45.5551576545       58.4142805821       52.5207745995
C                46.5623003366       59.5295850720       52.4428290548
C                47.5358265846       59.5249155143       51.4482683779
C                46.5623445536       60.5604799376       53.3689932100
C                48.4820526617       60.5251037366       51.3676929683
C                47.4967033416       61.5772767229       53.2964072155
C                48.4570009101       61.5682163948       52.2920500025
O                49.3827844093       62.5588260021       52.1831041071
H                44.3348153698       56.1657204533       52.9849253669
H                47.0584843183       56.8784844718       52.2089261070
H                45.0932256595       58.2734757182       51.5420526622
H                44.7690886326       58.6635796690       53.2367072339
H                47.5620186690       58.7303567572       50.7146133371
H                45.8182456155       60.5859736202       54.1505429775
H                49.2347845615       60.4998299601       50.5910069821
H                47.4763147319       62.3865154248       54.0130722568
H                49.2266472541       63.2297529086       52.8638913658
N                44.8756620959       55.6384951926       57.2628592519
C                43.9567237137       54.8941740324       58.0960433064
C                44.6264319162       53.5700907980       58.4956214160
O                45.6867486541       53.2240558083       58.0081285366
C                42.6390505081       54.6179352841       57.3362242935
C                41.4956245970       54.3687300739       58.3135543749
O                41.0606773868       55.2459709754       59.0383002751
N                40.9760126652       53.1239274501       58.2796474129
H                45.4334942154       55.0772871127       56.6313909481
H                43.7499379560       55.5106224340       58.9788697990
H                42.3874933604       55.5218361341       56.7790159235
H                42.7754055325       53.7806785808       56.6525502787
H                40.2810035426       52.8944313100       58.9751676648
H                41.5044293386       52.3578981404       57.8933527983
N                43.8727838382       52.7972318680       59.2993545801
C                44.3002921472       51.4930155948       59.7581836437
C                44.6280178485       51.5091034605       61.2464979612
O                45.2612302785       52.4313812264       61.7510191262
H                43.1212431227       53.2228532925       59.8216173736
H                43.5230355191       50.7538072604       59.5602480260
H                45.2044673340       51.2308225256       59.2007037163
N                51.0491630986       41.5661964937       57.7796001755
C                50.6325869809       42.4907935141       56.7315669001
C                49.8363394863       43.6667568627       57.2962779995
O                48.8372866186       43.4952905409       57.9888990745
C                49.7804761950       41.6089286888       55.8257083870
C                50.5268942085       40.2778624070       55.8707340751
C                51.0323654353       40.1871166987       57.3161596246
H                51.5181026429       42.8757018251       56.2103164373
H                48.7872314257       41.5144765894       56.2634405377
H                49.6895071596       42.0222681999       54.8238881836
H                49.9010226511       39.4288899804       55.6076351653
H                51.3681199755       40.3020242103       55.1776876862
H                50.3566805590       39.5937361155       57.9382130703
H                52.0343331885       39.7504585328       57.3570304361
N                50.2691504825       44.8698135754       56.8976944104
C                49.4013172936       46.0254859366       57.0444094902
C                48.0687385791       45.6510022993       56.3744622457
O                48.0292244080       45.1154810804       55.2760239259
C                50.0622010445       47.2559939408       56.4082419745
C                49.8670210566       48.5608390376       57.1915164893
C                50.9411152812       49.5678238106       56.7760468256
C                48.4824465667       49.1686887222       56.9816952344
H                50.9796113018       44.9099334684       56.1693021585
H                49.2272155036       46.1913314463       58.1151823083
H                51.1331434540       47.0511811814       56.3550324818
H                49.7018952749       47.3836623866       55.3861593995
H                49.9980702636       48.3422290726       58.2568989019
H                50.7985048557       50.5079729052       57.3025473411
H                51.9361602839       49.1932866686       57.0074696182
H                50.8855106970       49.7674064485       55.7081221391
H                48.3788727593       50.0659826615       57.5886768750
H                48.3564963032       49.4455920583       55.9389200794
H                47.6880149426       48.4834027611       57.2629472201
N                46.9835002912       45.9588345278       57.0891913310
C                45.6170375022       45.7521368946       56.6572841886
C                44.8134260330       46.9433470645       57.1964153118
O                45.3330896389       47.7910231036       57.9074211964
C                45.1161403899       44.3702347654       57.1464791772
C                44.9330576799       44.3825496923       58.6635604986
C                43.8539376253       43.8900988227       56.4269268107
H                47.0777738112       46.5076041202       57.9344913946
H                45.6155604510       45.7658644783       55.5608674587
H                45.9291464255       43.6801859304       56.8943469791
H                44.5432859474       43.4246740344       58.9969704380
H                45.8923284083       44.5744040251       59.1381415883
H                44.2326591950       45.1623284401       58.9577689693
H                43.7761553538       42.8121717994       56.5354247047
H                42.9461194088       44.3148744441       56.8509290054
H                43.9144132820       44.1034954965       55.3614640456
N                43.5344483844       46.9920921106       56.8069186769
C                42.6451412701       48.0742996360       57.1777888329
C                42.2607370943       48.0569978044       58.6600327261
O                42.3233564929       49.0714023610       59.3366813113
C                41.3770280622       47.9625222844       56.3237650392
C                40.3324807414       49.0475965132       56.6018890510
C                40.6434549479       50.3699792817       55.9066970341
N                40.5812174727       50.1789512946       54.4698898456
C                40.9426311627       51.0654022855       53.5575651133
N                41.2847484342       52.3151744032       53.8983156658
N                41.0746339756       50.6750461973       52.2939603035
H                43.1332886880       46.2090587371       56.3142598016
H                43.1848741573       49.0134634521       57.0084409445
H                41.6652540012       47.9798419515       55.2726675852
H                40.9387059629       46.9838450271       56.5266515503
H                39.3630847401       48.6959741015       56.2450227048
H                40.2605251023       49.2230898157       57.6745084941
H                39.9084708973       51.1166497352       56.2208882383
H                41.6497217525       50.7011792483       56.1795966645
H                40.2819506945       49.2678193443       54.1378148305
H                40.9851521849       52.6862988735       54.7862233842
H                41.4448621108       52.9715297456       53.1484757910
H                40.7383027367       49.7613314013       52.0306494868
H                41.3137268147       51.3385441330       51.5692526687
N                41.7957865048       46.8926180399       59.1336882156
C                41.2071642421       46.8396893601       60.4605493256
C                41.4997592777       45.4603198989       61.0257470787
O                41.1468849038       44.4477907512       60.4309317432
C                39.7006353772       47.1214552345       60.3618883516
C                39.0715236389       47.3622028576       61.7295332551
C                37.5677293277       47.6334398443       61.6464923365
C                37.2492342230       48.9201490096       60.8897992871
N                35.7894450683       49.2077921764       60.9704210918
H                41.5906811723       46.1082931452       58.5230215950
H                41.6746798987       47.6146289091       61.0750092067
H                39.6018918558       48.0195244339       59.7520434615
H                39.2129282234       46.2816063268       59.8605309365
H                39.2329495921       46.4836308224       62.3583011938
H                39.5836839432       48.1965283896       62.2150624032
H                37.0821357004       46.7790339560       61.1690547875
H                37.1990033999       47.7104112714       62.6698970924
H                37.8103246182       49.7450453767       61.3318613015
H                37.5213455573       48.8188220651       59.8400032108
H                35.5497541127       50.0440625076       60.4179799955
H                35.2608006597       48.3962389002       60.6137268920
H                35.5175229636       49.3637010116       61.9524158147
N                40.2856408824       42.4779176316       58.4262105765
C                39.2212385500       43.0000361826       57.6009607155
C                39.7058926422       44.1697191447       56.7538688409
O                40.6680514063       44.8683793102       57.0371741982
C                38.0512401906       43.4874856825       58.4785233417
C                37.4893193846       42.3838674433       59.3608575832
C                36.1560319183       42.7807441090       60.0761224574
O                35.5474966841       43.7852239057       59.6624364555
O                35.8099106654       42.0334675542       61.0136358304
H                40.6836104357       43.1462700931       59.0798385399
H                38.8843751121       42.1768058054       56.9606000725
H                38.4073462399       44.2954763522       59.1225092783
H                37.2423984617       43.8729773160       57.8548806261
H                37.2710614249       41.4859212772       58.7735148806
H                38.1945872512       42.1057622346       60.1492824216
N                38.9462462275       44.3620010241       55.6717364386
C                39.0184605563       45.4392095725       54.7168022970
C                37.6484434554       45.4483237666       54.0091818893
O                36.8941436583       44.4841221896       54.1318169022
C                40.1545723692       45.2069261382       53.7112739100
C                40.4534139078       46.4145286829       52.8506040441
O                40.2661485917       47.5682988818       53.2119163104
N                41.0539934576       46.1299883852       51.6884349458
H                38.1463930416       43.7614756104       55.4948824666
H                39.1732855996       46.3965828809       55.2244374500
H                41.0584382235       44.9773991285       54.2834500502
H                39.9183393642       44.3444398944       53.0858029696
H                41.2138919105       46.8753236048       51.0271901796
H                41.0832825598       45.1851988164       51.3445188289
N                37.3963404301       46.5402542256       53.3086536435
C                36.1495884868       46.8739912727       52.6590589911
C                36.4149501791       48.2223277619       51.9006291770
O                35.5581103515       48.6151031396       51.0976763461
C                35.0266262202       47.0066206371       53.6834249099
C                33.6261203433       47.1675675545       53.0226917335
O                33.3186874977       46.3411776879       52.1419299005
O                32.9016264792       48.0757726462       53.4804193404
O                37.5032405118       48.7756379849       52.1691245708
H                38.0513472705       47.3279258025       53.2187452401
H                35.8516395670       46.1142781509       51.9240856799
H                34.9864694532       46.0842716316       54.2739674989
H                35.2017788696       47.8548182370       54.3484973887
H                45.5537963409       37.4726244837       52.2246932200
H                57.0556977039       53.8548958478       47.3303471925
H                51.9505194652       54.0957195810       50.2515635937
H                38.9100692812       33.5901648928       48.8929768822
H                40.4738404740       38.0683461279       43.8186685447
H                46.3072402635       57.3009407199       55.1087130321
H                44.4151900344       56.2189073092       56.7518922711
H                44.3257484835       50.7578171892       61.8331854159
H                51.9474072549       41.5114650516       57.7923243563
H                41.9865017546       45.3688817086       61.8944937728
H                39.9759670348       41.7890406142       58.9156496053
