666
Properties=species:S:1:pos:R:3 pbc="F F F"
N      39.65400000      33.57000000      37.82400000 
C      39.45700000      32.58600000      37.15700000 
C      38.98300000      32.42800000      35.70500000 
O      39.09600000      31.90200000      35.08500000 
C      38.35600000      32.17000000      38.11300000 
C      37.65300000      33.43600000      39.00200000 
C      39.26100000      34.33300000      38.97000000 
H      40.36500000      31.85000000      37.11800000 
H      37.44700000      31.47100000      37.53800000 
H      38.83600000      31.39600000      38.98700000 
H      37.12300000      33.90400000      38.15400000 
H      37.45200000      33.24400000      39.61700000 
H      38.88900000      35.27700000      38.94900000 
H      39.64500000      33.94700000      39.78800000 
N      19.84100000      31.13600000      29.26900000 
C      20.69900000      30.04700000      29.17100000 
C      20.04300000      28.54000000      28.47800000 
O      20.42700000      28.08800000      27.82100000 
C      21.00500000      29.34700000      30.56100000 
C      21.41300000      28.09300000      30.82400000 
C      22.17000000      27.98000000      32.12500000 
N      23.61300000      28.53900000      32.35400000 
C      23.60800000      29.20800000      33.36900000 
N      22.98800000      29.47000000      34.49000000 
N      25.37100000      29.95000000      33.56000000 
H      19.55400000      31.52700000      29.97400000 
H      21.53800000      30.01600000      28.67600000 
H      21.63300000      30.29800000      31.07700000 
H      20.05900000      29.54500000      31.24900000 
H      20.97300000      27.54200000      30.55200000 
H      22.54200000      28.08400000      30.01000000 
H      21.44200000      28.24300000      32.80700000 
H      22.32600000      26.66500000      32.23400000 
H      24.09100000      28.66200000      31.45700000 
H      21.93800000      29.27700000      34.31700000 
H      23.14100000      30.59700000      34.89600000 
H      25.73100000      29.19100000      33.41100000 
H      25.21300000      30.21200000      34.26600000 
N      33.98600000      36.92400000      41.54800000 
C      34.63300000      36.02600000      41.09900000 
C      33.71000000      34.64600000      41.24800000 
O      33.54400000      33.92800000      40.85700000 
C      35.86900000      35.67900000      42.00300000 
H      34.44800000      37.77400000      42.27000000 
H      34.79600000      35.80500000      40.24300000 
H      36.33500000      34.68800000      41.75800000 
H      36.57400000      36.40700000      41.72400000 
H      35.60500000      35.71800000      43.11700000 
N      32.82600000      34.73800000      42.52500000 
C      31.86100000      33.88600000      42.90000000 
C      31.03100000      33.46600000      41.97100000 
O      30.40800000      32.79600000      41.56500000 
C      31.40400000      33.90300000      44.31400000 
H      33.00700000      35.73100000      43.19300000 
H      32.44000000      32.78000000      42.88600000 
H      30.65500000      33.33000000      44.50500000 
H      32.09200000      34.15700000      44.96000000 
H      30.75700000      35.14900000      44.22400000 
N      30.36200000      34.86500000      41.24300000 
C      29.36700000      34.86200000      40.14600000 
C      30.03800000      34.10700000      39.16700000 
O      29.27100000      33.55700000      38.30500000 
C      28.80400000      36.25200000      40.02000000 
C      28.21800000      36.84100000      41.42300000 
C      28.32700000      36.25000000      38.65000000 
C      26.74800000      36.18100000      41.05500000 
H      30.92600000      35.79500000      41.72600000 
H      28.60300000      34.27100000      40.52400000 
H      30.04300000      37.01900000      40.07600000 
H      28.49000000      36.66200000      41.94600000 
H      27.97700000      37.88800000      41.03100000 
H      27.98500000      37.61700000      38.55000000 
H      29.12100000      36.35200000      37.81200000 
H      27.55900000      35.84300000      38.53000000 
H      26.10900000      36.51800000      41.98800000 
H      26.17700000      36.31700000      40.25500000 
H      26.78200000      35.02100000      41.18800000 
N      31.12900000      34.36900000      38.54200000 
C      31.97600000      34.04100000      37.57200000 
C      31.57000000      32.54600000      37.17700000 
O      31.52700000      31.74700000      36.88200000 
C      33.17100000      34.33900000      37.24800000 
C      33.14900000      36.01400000      36.65400000 
C      33.82500000      33.77800000      36.33900000 
C      34.54700000      36.41800000      36.94200000 
H      31.84400000      35.33900000      39.32600000 
H      31.24300000      34.10400000      36.64200000 
H      33.80300000      34.34600000      38.40200000 
H      32.97600000      35.91100000      36.00900000 
H      32.48800000      36.36700000      37.44300000 
H      35.14800000      33.98100000      36.14600000 
H      34.11800000      32.41700000      36.75000000 
H      33.51800000      33.56600000      35.42300000 
H      34.52900000      37.72300000      36.64500000 
H      34.83100000      36.62200000      38.23400000 
H      35.35000000      36.08900000      36.62100000 
N      32.44100000      31.80300000      39.17500000 
C      32.42800000      30.43900000      39.05200000 
C      31.25000000      29.91500000      39.00300000 
O      30.79000000      28.76200000      38.45300000 
C      33.02900000      30.32800000      40.34700000 
C      34.68800000      30.76500000      40.14500000 
C      35.35100000      30.70600000      41.61600000 
C      35.48400000      29.55100000      39.23000000 
H      32.56100000      32.69200000      39.51800000 
H      32.88700000      30.09000000      38.26500000 
H      32.73000000      30.90100000      41.18700000 
H      33.04500000      29.41400000      40.56200000 
H      34.60900000      31.58800000      39.81300000 
H      36.21500000      30.88000000      41.50500000 
H      34.79000000      31.38800000      42.24000000 
H      35.14700000      29.63000000      42.05000000 
H      36.32200000      29.91100000      39.30200000 
H      35.19700000      28.66300000      39.70300000 
H      34.92800000      29.75200000      38.26100000 
N      29.78500000      30.47500000      39.83800000 
C      28.79100000      29.74300000      39.62100000 
C      28.41300000      29.71900000      38.18100000 
O      27.78400000      28.73400000      37.97000000 
C      27.84800000      30.76700000      40.62400000 
C      27.19300000      29.96000000      41.73500000 
C      27.02700000      28.63700000      41.66600000 
C      28.57000000      30.74900000      43.00400000 
H      30.25800000      31.39800000      40.35100000 
H      28.85000000      28.95100000      40.11500000 
H      27.92600000      31.66600000      40.50500000 
H      26.61500000      30.59600000      39.76300000 
H      26.38600000      30.55600000      42.11500000 
H      26.49700000      28.26100000      42.74500000 
H      26.53500000      28.32700000      40.99500000 
H      28.06200000      28.06000000      41.84300000 
H      28.11000000      30.08600000      43.78400000 
H      29.24400000      30.05200000      42.60800000 
H      28.38300000      31.40900000      43.02000000 
N      28.50200000      30.59700000      37.69600000 
C      27.65800000      30.73600000      36.16600000 
C      28.94100000      29.41300000      35.56700000 
O      27.97900000      28.71000000      34.50500000 
C      28.03900000      31.97500000      35.26000000 
C      27.00400000      32.71000000      35.63800000 
N      26.97600000      33.56900000      36.89200000 
C      25.68300000      32.90700000      35.09800000 
C      25.51800000      34.56700000      37.27500000 
N      25.04600000      33.72500000      35.98300000 
H      28.86300000      31.56200000      37.74300000 
H      27.00800000      30.26000000      36.13000000 
H      29.00400000      32.35900000      35.53600000 
H      27.98400000      31.71200000      34.36900000 
H      27.78900000      33.63600000      37.51500000 
H      25.27000000      32.57300000      34.41600000 
H      25.59700000      34.81400000      37.67700000 
N      29.73000000      29.39400000      35.59400000 
C      30.74600000      28.54800000      34.89300000 
C      30.07200000      26.61300000      35.16300000 
O      29.85000000      26.28000000      34.59700000 
C      32.24600000      28.43300000      35.23000000 
O      32.55000000      29.81900000      35.19600000 
C      33.10800000      27.35200000      34.72900000 
H      30.31700000      30.01300000      36.25300000 
H      30.73300000      28.36200000      34.00800000 
H      32.16500000      28.30000000      36.66300000 
H      32.45100000      30.33700000      35.60200000 
H      33.94300000      27.53400000      35.02900000 
H      32.80200000      26.49900000      35.02800000 
H      32.91500000      27.46400000      33.69000000 
N      30.02100000      27.03700000      36.57900000 
C      29.61600000      25.40600000      37.15800000 
C      27.95800000      25.22600000      36.66600000 
O      27.63000000      24.07400000      36.28300000 
C      29.60700000      25.12900000      38.55500000 
C      30.99000000      25.34800000      38.95100000 
C      32.26500000      24.75300000      38.40800000 
C      31.33000000      26.32500000      40.08700000 
C      33.30100000      24.64300000      38.67600000 
C      32.97500000      26.37500000      40.57900000 
C      33.93100000      25.44600000      39.96900000 
H      30.13200000      27.40300000      37.25800000 
H      29.96200000      24.73400000      36.61400000 
H      29.03300000      26.27400000      39.11000000 
H      29.26200000      24.52000000      38.85100000 
H      31.68600000      23.94600000      37.45000000 
H      30.77800000      26.74400000      40.47500000 
H      34.01200000      24.10300000      38.26800000 
H      33.00700000      26.64600000      41.05500000 
H      34.59600000      25.47200000      40.00800000 
N      27.20500000      26.20000000      36.75500000 
C      25.86200000      26.07300000      36.37000000 
C      25.60000000      25.80600000      34.96100000 
O      24.89800000      24.92100000      34.57300000 
C      25.12200000      27.48600000      36.42400000 
C      24.73400000      27.93600000      37.82400000 
C      24.53300000      26.80300000      39.11200000 
C      24.62700000      28.88500000      38.73900000 
N      24.23000000      27.64800000      39.84500000 
C      24.20000000      28.97500000      39.91700000 
C      24.69200000      30.55300000      37.91800000 
C      24.14200000      29.90800000      40.64900000 
C      24.56400000      31.40300000      38.93600000 
C      24.27500000      31.13400000      40.03300000 
H      27.55400000      27.28600000      37.09500000 
H      25.44200000      25.56500000      36.78800000 
H      25.75500000      28.30800000      36.14200000 
H      24.17300000      27.51400000      35.90700000 
H      24.53900000      25.86800000      38.89600000 
H      23.94700000      27.05600000      41.05100000 
H      24.90300000      30.55600000      37.07000000 
H      23.88800000      29.81800000      41.61900000 
H      24.62100000      32.50500000      38.48200000 
H      24.12900000      32.18300000      40.92100000 
N      26.66800000      26.41100000      33.79300000 
C      26.42300000      26.17100000      32.49800000 
C      26.81200000      24.36700000      32.45200000 
O      26.12700000      23.82000000      31.72600000 
H      27.25500000      27.08000000      34.30100000 
H      25.53200000      26.12500000      32.31400000 
H      27.01400000      26.48100000      32.14400000 
N      27.79100000      24.15100000      33.13400000 
C      28.30500000      22.63100000      33.15200000 
C      26.91200000      21.92800000      33.86500000 
O      26.57500000      20.61400000      32.71500000 
C      29.42500000      22.45900000      33.89200000 
C      29.48600000      20.81300000      33.83700000 
C      30.53800000      23.23900000      33.20100000 
H      28.25800000      24.56800000      33.60700000 
H      28.30900000      22.34800000      31.91500000 
H      29.14200000      22.79800000      34.78900000 
H      30.63900000      20.69500000      34.50000000 
H      28.99100000      20.38100000      34.48000000 
H      29.71500000      20.39600000      32.96900000 
H      31.47000000      22.86100000      33.71100000 
H      30.75300000      22.61400000      32.10400000 
H      30.43700000      23.99400000      33.11200000 
N      26.38700000      21.99100000      34.51200000 
C      25.47900000      20.97600000      35.21500000 
C      24.34000000      21.61900000      34.32600000 
O      23.34200000      20.23700000      34.21700000 
C      25.38200000      21.90400000      36.74700000 
C      23.92400000      21.02600000      37.34700000 
C      26.30400000      21.32800000      37.43000000 
H      26.91900000      22.92200000      35.18600000 
H      25.64200000      20.33800000      35.26500000 
H      24.98800000      22.73500000      36.63200000 
H      23.69000000      21.38000000      38.07700000 
H      22.90800000      21.33800000      36.63400000 
H      23.95600000      20.10500000      37.26500000 
H      26.23200000      21.71500000      38.52200000 
H      26.41900000      20.38000000      37.63700000 
H      27.14100000      21.78300000      37.19700000 
N      23.87900000      22.39300000      33.89000000 
C      22.40200000      22.58200000      33.36700000 
C      22.62000000      21.94800000      31.93200000 
O      21.49500000      21.24000000      31.70300000 
C      22.56100000      24.28300000      32.35100000 
C      21.48000000      24.57800000      32.27100000 
C      21.23000000      24.30300000      30.71300000 
C      20.24500000      25.06700000      32.30700000 
C      19.88800000      24.60600000      29.75200000 
C      19.07300000      25.44600000      32.15900000 
C      19.15200000      25.08400000      30.70200000 
H      24.51400000      23.44900000      34.12800000 
H      21.95300000      22.61300000      33.66800000 
H      22.64000000      24.95700000      33.71300000 
H      23.39100000      24.42900000      32.10500000 
H      22.09500000      23.88100000      30.02800000 
H      20.35700000      25.28000000      33.83100000 
H      19.95400000      24.50000000      29.12700000 
H      18.30000000      25.81700000      32.46900000 
H      17.83100000      25.42900000      30.01700000 
N      23.37400000      21.70500000      31.05600000 
C      23.64500000      21.05200000      30.11800000 
C      23.08000000      19.76500000      30.22300000 
O      22.38000000      18.94000000      29.50200000 
C      24.76300000      21.11800000      29.05700000 
C      24.81400000      22.47400000      28.15700000 
C      24.68200000      23.64600000      28.94200000 
C      25.15300000      22.56100000      27.08200000 
C      24.76900000      24.87400000      28.27000000 
C      25.38500000      23.49600000      26.40500000 
C      25.23100000      24.84900000      26.72900000 
H      24.60800000      22.40600000      31.49700000 
H      22.48000000      21.53000000      29.30400000 
H      25.51900000      21.05700000      29.72800000 
H      24.67500000      20.37400000      28.38600000 
H      24.34400000      23.80100000      30.01800000 
H      25.36900000      21.45600000      26.50200000 
H      24.73000000      25.68700000      28.58600000 
H      25.73000000      23.55900000      25.14300000 
H      25.38200000      25.75300000      26.24700000 
N      24.11700000      19.21700000      31.57800000 
C      23.51100000      17.67700000      31.69200000 
C      22.33400000      17.50600000      32.16200000 
O      21.50900000      16.58400000      31.75000000 
C      24.79700000      17.24000000      32.67400000 
C      25.76400000      16.42600000      32.38200000 
O      25.44500000      15.77400000      30.68000000 
O      26.55500000      15.91100000      32.68500000 
H      24.33800000      19.64600000      31.69700000 
H      23.72300000      16.99900000      30.74700000 
H      25.26500000      18.09600000      33.07300000 
H      24.21400000      16.74500000      33.44500000 
N      21.87100000      18.55700000      33.08900000 
C      20.38300000      18.20800000      33.80000000 
C      19.40500000      18.38100000      32.41100000 
O      18.46600000      17.46400000      32.52400000 
C      20.03200000      19.03400000      34.87700000 
H      22.28100000      19.06000000      33.38700000 
H      20.38200000      17.14400000      34.11400000 
H      19.17300000      19.16500000      34.98700000 
H      20.90800000      19.15300000      35.50100000 
H      20.35000000      20.52400000      34.07600000 
N      14.04000000      18.54200000      38.53300000 
C      14.55100000      18.71600000      39.29500000 
C      15.81000000      19.47100000      39.84600000 
O      15.99900000      20.39400000      40.34300000 
C      14.18900000      17.69700000      40.61000000 
C      15.32900000      16.38400000      40.23100000 
C      15.08700000      15.43300000      39.66700000 
C      16.59400000      16.80900000      40.89900000 
N      16.19100000      14.98700000      39.77500000 
C      16.67500000      15.20300000      40.24900000 
C      17.38100000      17.14600000      41.47600000 
C      18.82000000      14.98500000      40.83800000 
C      18.64400000      17.06800000      41.98500000 
C      18.83800000      15.74300000      41.26300000 
H      14.01100000      17.42600000      37.91700000 
H      13.57700000      19.77600000      39.94900000 
H      14.34800000      18.05600000      41.53300000 
H      13.17800000      17.33200000      40.44700000 
H      14.12800000      15.06300000      39.09500000 
H      16.18200000      13.60900000      39.32400000 
H      16.92300000      18.39600000      41.89400000 
H      18.77800000      14.01100000      40.35200000 
H      19.24500000      17.72400000      42.46800000 
H      20.32600000      15.51100000      41.75600000 
N      16.74100000      19.01200000      38.87700000 
C      17.89500000      19.46500000      38.74300000 
C      17.93800000      20.67600000      38.27400000 
O      18.89100000      21.83500000      38.77300000 
C      19.04800000      18.45900000      38.42000000 
H      16.46800000      18.08600000      38.31200000 
H      18.39500000      19.57700000      39.97800000 
H      20.03500000      18.86700000      38.29800000 
H      18.95700000      17.51800000      38.68600000 
H      18.71600000      18.40500000      37.21700000 
N      17.04000000      23.08600000      41.10100000 
C      17.85500000      23.10200000      41.63400000 
C      19.01500000      24.52200000      41.30400000 
O      19.27000000      25.16300000      42.02000000 
C      18.71200000      22.09000000      42.03800000 
C      19.82400000      22.16900000      43.42500000 
C      19.70600000      20.67500000      43.73700000 
C      21.16900000      22.39900000      42.46700000 
H      16.74400000      22.03000000      40.45100000 
H      17.49600000      23.67200000      42.75600000 
H      17.78800000      21.18300000      42.43600000 
H      19.04900000      21.56000000      41.11600000 
H      19.36400000      22.61900000      43.82300000 
H      20.68700000      20.63400000      44.60700000 
H      19.01700000      20.32300000      44.27000000 
H      20.20200000      19.87500000      43.00700000 
H      21.75300000      22.46600000      43.38900000 
H      21.39800000      21.78500000      41.90500000 
H      21.01200000      23.44100000      42.19700000 
N      19.25900000      24.04800000      39.91400000 
C      20.35300000      25.23800000      39.57300000 
C      19.71300000      26.45900000      39.48300000 
O      20.25400000      27.57400000      39.93500000 
C      20.47200000      24.57400000      38.13500000 
C      21.49800000      25.89100000      37.35600000 
C      21.54500000      23.56700000      38.32500000 
H      18.99600000      23.51900000      39.61500000 
H      21.10800000      25.25900000      40.11700000 
H      19.72200000      24.50200000      37.58700000 
H      21.69600000      25.48500000      36.40500000 
H      20.62500000      26.76100000      37.13100000 
H      22.21500000      26.17300000      37.84300000 
H      21.79900000      23.16000000      37.19500000 
H      22.41000000      23.73900000      38.61300000 
H      21.10100000      22.77700000      38.69200000 
N      19.68100000      27.71800000      42.80800000 
C      20.30900000      28.39300000      43.36700000 
C      21.15300000      29.63900000      42.78700000 
O      21.54700000      30.40400000      43.54500000 
C      21.68400000      26.98800000      42.78300000 
O      21.70100000      26.27300000      43.63900000 
H      19.22100000      27.15800000      42.39300000 
H      20.68600000      28.34300000      44.43100000 
H      21.69600000      27.27300000      41.93400000 
H      22.60800000      27.53900000      43.18100000 
H      20.52300000      25.47500000      42.90000000 
N      20.85200000      30.13200000      41.88000000 
C      20.87100000      31.12600000      40.80300000 
C      20.08900000      32.37700000      41.94200000 
O      20.98400000      33.28200000      42.54400000 
C      20.38500000      31.37000000      39.90300000 
C      21.45700000      32.52000000      38.74400000 
N      21.73100000      33.58200000      39.26600000 
C      21.65100000      32.30500000      37.65900000 
C      22.09200000      33.88200000      38.56200000 
N      22.31200000      33.64700000      37.33800000 
H      20.17400000      29.18600000      40.95700000 
H      21.99200000      31.37800000      41.22500000 
H      20.84800000      30.26000000      39.16600000 
H      19.62400000      31.34100000      39.56900000 
H      21.55200000      31.49900000      36.73800000 
H      22.85200000      35.39600000      38.56700000 
H      22.85700000      33.77400000      36.51700000 
N      21.77700000      32.56200000      45.23200000 
C      22.94200000      33.67500000      45.39600000 
C      22.72800000      34.83200000      45.36500000 
O      23.24600000      35.74600000      45.90500000 
C      24.04600000      32.91700000      44.53500000 
O      23.63100000      33.31800000      42.88800000 
C      24.34500000      31.56900000      44.72100000 
H      21.63700000      31.97500000      44.64200000 
H      23.49600000      33.38300000      46.46600000 
H      24.97700000      33.76500000      44.59000000 
H      22.54500000      33.01800000      42.86700000 
H      25.21100000      31.39600000      43.88700000 
H      24.86200000      31.50800000      45.68100000 
H      23.80200000      31.05400000      44.46100000 
N      27.60900000      32.46700000      49.73800000 
C      27.79200000      32.39900000      48.42200000 
C      29.06200000      31.60100000      47.61300000 
O      28.93200000      31.10500000      47.33100000 
C      27.97000000      34.08400000      47.66700000 
C      26.34300000      34.62600000      48.00300000 
C      28.19800000      33.43500000      46.28800000 
C      26.42000000      35.80900000      47.65300000 
H      27.69600000      33.47100000      50.24300000 
H      26.87600000      31.93200000      47.98300000 
H      28.41300000      34.32800000      48.23100000 
H      25.76000000      34.08500000      47.38000000 
H      26.10200000      34.32200000      48.86600000 
H      28.09000000      34.97100000      45.77300000 
H      29.07000000      33.45500000      46.15200000 
H      27.45900000      33.27000000      45.77700000 
H      25.49400000      36.44000000      47.86100000 
H      27.14500000      36.47700000      48.35700000 
H      26.78000000      36.22000000      46.63100000 
N      30.01900000      31.75000000      48.58900000 
C      31.16600000      31.13300000      48.54000000 
C      31.10500000      29.25100000      48.55800000 
O      31.40900000      28.98100000      47.97700000 
C      32.44600000      31.65800000      49.11100000 
C      33.59600000      32.04300000      48.13800000 
C      33.90800000      31.54900000      47.38800000 
C      33.81900000      33.65300000      48.78000000 
C      35.12800000      31.89100000      46.41000000 
C      35.20900000      33.92200000      47.53300000 
C      35.37900000      33.21800000      46.78700000 
O      36.54900000      33.62200000      45.72300000 
H      30.03600000      32.63200000      49.46800000 
H      31.53300000      31.13900000      47.16400000 
H      32.09300000      32.43400000      49.94800000 
H      32.87100000      30.71100000      49.81100000 
H      33.63300000      30.34200000      47.01900000 
H      33.66200000      33.94200000      49.17500000 
H      35.46600000      31.27400000      45.53600000 
H      35.37800000      34.91400000      47.88700000 
H      36.87000000      34.48800000      46.08900000 
N      28.32200000      27.94800000      48.31100000 
C      27.31200000      27.62000000      47.29200000 
C      28.33600000      27.46300000      45.87900000 
O      28.06000000      26.55700000      45.20200000 
C      26.17800000      28.55100000      46.79700000 
C      25.59100000      28.22400000      45.74000000 
C      25.25300000      28.65700000      48.33600000 
H      27.96300000      29.03700000      48.73300000 
H      26.98800000      26.78800000      47.32900000 
H      26.73400000      29.71600000      46.90700000 
H      24.66000000      28.93400000      45.49800000 
H      26.24400000      28.55200000      44.70500000 
H      25.24500000      27.32000000      45.56900000 
H      24.54900000      29.13200000      47.93100000 
H      24.78400000      27.60400000      48.06500000 
H      25.62500000      28.74600000      48.82200000 
N      29.35900000      28.26900000      45.70800000 
C      30.05800000      28.36100000      44.74000000 
C      30.85400000      26.67800000      44.61000000 
O      30.92700000      26.29700000      43.81000000 
C      31.28800000      29.39300000      44.77200000 
O      30.68500000      30.67300000      44.78400000 
C      32.06000000      29.41200000      43.68800000 
H      29.28300000      29.25900000      46.55900000 
H      29.68300000      28.36200000      43.65500000 
H      31.69900000      29.25900000      45.56600000 
H      30.04800000      30.77900000      45.58200000 
H      32.79100000      30.10700000      43.56600000 
H      32.70500000      28.38700000      43.50600000 
H      31.59700000      29.41900000      42.67700000 
N      31.28500000      26.70200000      46.02400000 
C      32.40800000      25.32300000      45.92900000 
C      31.17600000      24.17900000      45.75400000 
O      31.63500000      23.16600000      45.04100000 
C      32.75200000      25.31200000      47.23900000 
C      33.40600000      23.79600000      47.47600000 
C      34.01900000      26.47600000      47.50400000 
H      31.33000000      27.23800000      46.61600000 
H      32.85200000      25.26800000      45.19700000 
H      32.11100000      25.48500000      48.09500000 
H      34.08300000      23.96300000      48.49100000 
H      32.83800000      23.21200000      47.60400000 
H      34.19600000      23.74800000      46.72500000 
H      34.41600000      26.38400000      48.27800000 
H      34.68600000      26.19100000      46.53800000 
H      33.42700000      27.45800000      47.25400000 
N      29.95900000      24.38900000      46.51100000 
C      29.07200000      23.19700000      46.18800000 
C      28.71600000      22.96700000      44.96400000 
O      28.75400000      21.79200000      44.30100000 
C      27.83700000      23.73000000      46.82000000 
O      26.67300000      22.45500000      46.75700000 
H      29.79200000      25.01600000      46.88000000 
H      29.47300000      22.23500000      46.66500000 
H      28.10800000      23.77200000      48.18700000 
H      27.48700000      24.53000000      46.63700000 
H      26.13300000      22.80000000      47.08500000 
N      28.46300000      24.16300000      43.84700000 
C      27.97300000      23.75400000      42.53600000 
C      29.17900000      23.42800000      42.11000000 
O      29.08900000      22.52300000      40.88300000 
C      27.71900000      25.49100000      42.22000000 
C      26.83700000      25.04400000      40.80200000 
S      25.00000000      24.47500000      41.48100000 
C      24.74900000      25.26500000      43.07900000 
H      28.52100000      24.96900000      44.57200000 
H      27.39700000      23.30300000      42.56600000 
H      27.25200000      25.86400000      42.82400000 
H      28.61300000      25.80000000      41.79300000 
H      26.61000000      26.10900000      40.50500000 
H      27.13800000      24.48700000      40.17400000 
H      23.70300000      25.37300000      43.12200000 
H      25.27700000      25.10900000      43.73200000 
H      25.07300000      26.68100000      42.63900000 
N      30.65900000      23.54800000      41.97200000 
C      31.41300000      23.07100000      41.57300000 
C      31.82100000      22.07500000      41.69000000 
O      32.02000000      20.99600000      40.87100000 
H      30.55200000      24.56100000      43.01400000 
H      31.52500000      23.42300000      40.47700000 
H      32.58700000      23.77100000      41.97600000 
N      31.54400000      21.07600000      42.78000000 
C      31.55500000      19.98700000      43.13600000 
C      30.51700000      18.84000000      42.27300000 
O      30.66600000      18.33100000      41.96700000 
C      31.33700000      19.60300000      44.69600000 
C      32.61900000      18.63100000      45.08200000 
C      33.76500000      19.69500000      45.23300000 
C      32.24200000      18.10700000      46.65100000 
H      31.21900000      22.03900000      43.79900000 
H      32.39200000      19.49000000      42.90000000 
H      31.35100000      20.39700000      45.22800000 
H      30.45400000      19.06500000      44.92300000 
H      32.56500000      17.91300000      44.57800000 
H      34.75200000      18.82900000      45.58300000 
H      34.06000000      19.84700000      44.12800000 
H      33.78400000      20.31300000      45.78600000 
H      33.05600000      17.71200000      47.02900000 
H      32.12600000      19.12300000      47.31800000 
H      31.34500000      17.73700000      46.66400000 
N      29.28100000      19.75900000      42.40000000 
C      28.29300000      19.02700000      41.54300000 
C      28.69100000      19.17100000      40.16500000 
O      28.47800000      17.80700000      39.38500000 
C      26.98700000      19.85500000      41.90300000 
C      25.74500000      18.96300000      41.92900000 
C      25.60000000      17.95900000      42.51100000 
C      24.51300000      18.96300000      41.61100000 
N      24.54100000      16.86400000      43.05200000 
C      23.28800000      18.17100000      41.82400000 
C      23.65100000      20.01800000      40.46400000 
C      22.48900000      17.87200000      41.72300000 
C      22.66600000      19.84800000      40.33300000 
C      21.55500000      18.61100000      40.81900000 
H      29.14500000      20.66700000      42.87300000 
H      28.15700000      18.13500000      41.91900000 
H      26.94500000      20.49300000      42.54100000 
H      26.66600000      20.47600000      40.85800000 
H      26.70300000      17.20100000      43.50200000 
H      24.25100000      16.61600000      43.15200000 
H      24.43600000      20.80300000      40.20100000 
H      21.69400000      17.02100000      42.14900000 
H      22.02400000      20.50200000      39.67000000 
H      20.73500000      18.69800000      40.64100000 
N      29.09500000      20.02300000      39.80600000 
C      29.65700000      19.93900000      38.21200000 
C      30.48500000      19.07500000      37.93100000 
O      30.67000000      18.31400000      37.10200000 
C      30.23200000      21.49700000      38.01100000 
H      29.22700000      20.83200000      40.04100000 
H      28.79900000      19.77000000      37.55900000 
H      30.44700000      21.45800000      36.69600000 
H      29.33800000      22.19800000      37.85900000 
H      30.88500000      21.71500000      38.45300000 
N      31.67800000      18.95600000      39.03100000 
C      32.53700000      17.95700000      38.76200000 
C      32.08700000      16.65300000      38.64800000 
O      32.50500000      15.71200000      37.82500000 
C      33.72400000      18.25800000      40.01300000 
C      34.78400000      16.77900000      40.03600000 
C      34.50800000      16.24700000      40.26900000 
C      35.72700000      17.44000000      39.37900000 
C      35.38800000      14.52600000      40.55200000 
C      36.94500000      16.41500000      39.13000000 
C      37.01300000      15.34600000      39.44900000 
H      31.63300000      19.53500000      39.64400000 
H      33.23600000      18.07000000      38.01800000 
H      33.94700000      19.08300000      40.08400000 
H      32.89900000      17.91300000      41.02500000 
H      33.82300000      15.56700000      40.91500000 
H      35.95600000      18.38800000      38.88200000 
H      35.51900000      14.19400000      40.54900000 
H      37.79500000      16.82400000      38.58600000 
H      37.41900000      14.65800000      39.52000000 
N      30.93300000      16.25200000      39.64000000 
C      30.60600000      15.11800000      39.62100000 
C      29.89200000      14.95400000      38.66600000 
O      29.84900000      13.29300000      37.84200000 
C      29.62600000      15.05500000      40.97000000 
C      30.37100000      15.01300000      42.22200000 
C      28.86000000      13.55000000      40.83200000 
C      29.55600000      15.05400000      43.26900000 
H      30.79400000      17.03500000      40.37200000 
H      31.29400000      14.18100000      39.81800000 
H      29.00400000      15.70000000      40.88700000 
H      30.97000000      13.89800000      42.30200000 
H      31.22900000      15.61500000      42.01400000 
H      28.11500000      13.45900000      41.80800000 
H      28.07400000      13.62000000      39.98700000 
H      29.27100000      12.85700000      40.70600000 
H      30.37800000      15.23300000      44.44800000 
H      29.16300000      16.18300000      43.25900000 
H      28.92700000      14.57700000      43.60200000 
N      29.21000000      15.44700000      37.67500000 
C      28.22600000      15.26900000      36.50900000 
C      29.29500000      14.54100000      35.26100000 
O      29.03800000      14.15400000      34.88100000 
C      27.61000000      16.33500000      35.79100000 
O      28.50500000      17.50300000      35.49200000 
C      26.82200000      17.11400000      36.86800000 
H      29.12200000      16.68500000      38.29200000 
H      27.88600000      14.62900000      36.68300000 
H      27.27000000      16.25700000      35.33800000 
H      29.17700000      17.78900000      36.22900000 
H      26.08800000      17.80900000      36.50600000 
H      25.85600000      16.04100000      37.39700000 
H      27.07000000      17.43500000      37.78500000 
H      40.51416788      33.58654999      38.08826751 
H      38.36006120      33.10106687      35.30634195 
H      20.20494137      31.84395533      28.84906437 
H      19.19006527      28.15657499      28.83224229 
H      33.64157179      37.41203156      40.87480285 
H      19.62140512      19.08178315      31.73124136 
H      13.16838588      18.66324430      38.72164951 
H      17.32951366      20.94494081      37.52739755 
H      16.32921211      23.22745272      41.63464005 
H      18.80719783      26.51902283      39.06357220 
H      18.82680619      27.81111650      43.07573541 
H      19.09965722      32.37103802      42.08748306 
H      21.78632501      32.01031765      45.94302716 
H      21.98459078      35.18798410      44.79876855 
H      26.78079971      32.17940655      49.94140671 
H      30.68027812      28.77182730      49.32611773 
H      28.31878285      27.31582670      48.95158299 
H      30.26352030      14.78756166      35.22671045 
