289
Properties=species:S:1:pos:R:3 pbc="F F F"
N      57.56700000      53.64000000      47.08000000 
C      57.93100000      55.02300000      47.21800000 
C      58.81400000      55.38600000      46.07300000 
O      59.43400000      54.52700000      45.42500000 
C      58.64900000      55.35400000      48.54300000 
C      60.08800000      54.92600000      48.64300000 
C      60.95000000      56.01400000      49.26900000 
C      61.10800000      57.18000000      48.33400000 
N      61.84600000      58.28900000      48.99400000 
H      58.01700000      53.11800000      46.35600000 
H      57.04100000      55.60600000      47.18000000 
H      58.56800000      56.42400000      48.66200000 
H      58.05400000      54.91500000      49.33300000 
H      60.17600000      54.01000000      49.22300000 
H      60.50100000      54.68600000      47.65800000 
H      60.48000000      56.34500000      50.19300000 
H      61.93500000      55.61800000      49.52700000 
H      61.67700000      56.90900000      47.45800000 
H      60.16200000      57.58900000      48.02800000 
H      61.83800000      59.10400000      48.41400000 
H      61.40600000      58.52700000      49.87900000 
H      62.79300000      58.01200000      49.20000000 
N      61.34400000      62.51300000      46.70100000 
C      61.40800000      63.12600000      48.00400000 
C      60.94800000      64.56300000      47.82500000 
O      61.70600000      65.50600000      47.89700000 
C      62.81100000      63.06500000      48.57300000 
C      62.85200000      63.54700000      49.98000000 
O      61.80700000      63.92100000      50.56700000 
N      64.02100000      63.54200000      50.57900000 
H      61.33600000      63.10300000      45.88600000 
H      60.73300000      62.62300000      48.65200000 
H      63.11700000      62.04500000      48.55200000 
H      63.48200000      63.64400000      47.97100000 
H      64.10300000      63.83800000      51.52700000 
H      64.84300000      63.23000000      50.12500000 
N      60.24600000      51.49200000      61.37300000 
C      59.74400000      52.27600000      60.25800000 
C      60.94300000      52.63400000      59.43800000 
O      62.07200000      52.75100000      59.96300000 
C      58.97000000      53.51000000      60.68400000 
C      59.82900000      54.46100000      61.46100000 
C      59.11500000      55.65900000      62.03400000 
O      59.60500000      56.21100000      63.02900000 
O      58.05700000      56.04200000      61.42700000 
H      61.18100000      51.53500000      61.56000000 
H      59.09600000      51.65600000      59.66800000 
H      58.57400000      54.00300000      59.79000000 
H      58.13000000      53.19300000      61.26700000 
H      60.32500000      53.95300000      62.25600000 
H      60.62200000      54.87400000      60.82600000 
N      60.71900000      52.81400000      58.16000000 
C      61.68500000      53.27400000      57.20300000 
C      61.55700000      54.76300000      57.03900000 
O      60.45900000      55.29900000      56.89700000 
C      61.39600000      52.63900000      55.85900000 
C      61.64500000      51.14900000      55.86200000 
C      60.85200000      50.46300000      54.75200000 
C      63.12300000      50.85900000      55.69700000 
H      59.78600000      52.67100000      57.81700000 
H      62.66200000      53.02000000      57.55500000 
H      60.36900000      52.85800000      55.60800000 
H      62.01200000      53.10300000      55.10000000 
H      61.30200000      50.74600000      56.81600000 
H      60.99800000      49.38700000      54.78600000 
H      59.78800000      50.65000000      54.87100000 
H      61.15800000      50.81800000      53.79200000 
H      63.33100000      49.80100000      55.78000000 
H      63.44800000      51.20000000      54.72800000 
H      63.70400000      51.37100000      56.44800000 
N      62.71200000      55.44000000      56.98700000 
C      62.75200000      56.74600000      56.40800000 
C      63.81000000      56.74900000      55.33100000 
O      64.46400000      55.74200000      55.06000000 
C      62.91300000      57.81400000      57.47400000 
O      62.87700000      59.10100000      56.82800000 
H      63.56600000      54.94500000      57.12400000 
H      61.80700000      56.92100000      55.90800000 
H      62.05900000      57.73600000      58.13600000 
H      63.81700000      57.69200000      58.02000000 
H      63.31600000      59.77900000      57.32100000 
N      63.89400000      57.89000000      54.65300000 
C      64.61600000      58.05100000      53.41000000 
C      65.63900000      59.13200000      53.61900000 
O      65.25700000      60.29900000      53.85900000 
C      63.62700000      58.43900000      52.34300000 
C      64.25400000      58.65600000      50.99000000 
C      64.72400000      57.55200000      50.27800000 
C      64.34400000      59.89800000      50.43700000 
C      65.23600000      57.72700000      48.99300000 
C      64.87000000      60.07800000      49.17100000 
C      65.29800000      58.95500000      48.45600000 
O      65.80900000      59.09200000      47.18400000 
H      63.41300000      58.67800000      55.00600000 
H      65.10800000      57.11600000      53.16600000 
H      62.87700000      57.66400000      52.28200000 
H      63.13200000      59.34900000      52.65800000 
H      64.66800000      56.57600000      50.70900000 
H      64.00000000      60.75800000      50.98100000 
H      65.60400000      56.87900000      48.45300000 
H      64.96900000      61.05500000      48.73700000 
H      65.77500000      59.96900000      46.83000000 
N      66.89200000      58.78800000      53.55200000 
C      67.95700000      59.74700000      53.71700000 
C      68.11200000      60.56500000      52.47300000 
O      67.75700000      60.19100000      51.34300000 
C      69.27400000      59.02500000      53.96200000 
C      69.53800000      58.70700000      55.41700000 
O      68.75800000      59.17300000      56.29800000 
O      70.58000000      58.02400000      55.63100000 
H      67.14200000      57.87300000      53.24000000 
H      67.73900000      60.38200000      54.53900000 
H      69.30400000      58.11400000      53.39200000 
H      70.09800000      59.63800000      53.63600000 
N      68.78100000      61.72100000      52.63900000 
C      69.03700000      62.61000000      51.52800000 
C      69.75000000      61.89400000      50.40400000 
O      69.60400000      62.23800000      49.24100000 
C      69.94100000      63.76200000      51.98100000 
C      69.61100000      64.25700000      53.32200000 
N      68.42400000      64.93200000      53.61600000 
C      70.32500000      64.11400000      54.48000000 
C      68.44800000      65.17300000      54.91000000 
N      69.56700000      64.69600000      55.47100000 
H      69.01100000      62.03900000      53.54400000 
H      68.10700000      62.99500000      51.12600000 
H      70.97000000      63.40200000      51.99100000 
H      69.87000000      64.55000000      51.23900000 
H      71.26600000      63.65300000      54.66500000 
H      67.67200000      65.67900000      55.46500000 
H      69.81400000      64.75100000      56.43100000 
N      70.60900000      60.94300000      50.81300000 
C      71.48700000      60.27500000      49.87600000 
C      70.80700000      59.15900000      49.12800000 
O      71.42700000      58.46900000      48.33600000 
C      72.70500000      59.75700000      50.66300000 
C      73.85200000      59.43400000      49.73600000 
C      75.02200000      58.80700000      50.45300000 
O      75.19200000      58.94800000      51.66700000 
N      75.83600000      58.11000000      49.68900000 
H      70.70600000      60.76300000      51.74500000 
H      71.81100000      60.97500000      49.12900000 
H      73.00300000      60.54000000      51.33700000 
H      72.42000000      58.89800000      51.24700000 
H      73.53100000      58.75700000      48.96000000 
H      74.21500000      60.32100000      49.25900000 
H      75.67300000      57.97900000      48.72100000 
H      76.67000000      57.69300000      50.08300000 
N      69.49800000      58.96600000      49.35300000 
C      68.74500000      58.02500000      48.56400000 
C      68.59300000      56.69200000      49.23000000 
O      67.87000000      55.81800000      48.69400000 
H      69.00500000      59.51600000      50.02000000 
H      67.78000000      58.41600000      48.35700000 
H      69.26100000      57.86300000      47.63100000 
N      69.25000000      56.48800000      50.33600000 
C      69.15800000      55.27000000      51.09200000 
C      68.02500000      55.34700000      52.06300000 
O      67.41100000      56.41900000      52.27600000 
C      70.48600000      55.02200000      51.79300000 
C      71.59800000      54.81200000      50.77200000 
C      72.82500000      54.18200000      51.36500000 
C      73.43500000      55.04900000      52.45200000 
N      74.60100000      54.33800000      53.04700000 
H      69.74500000      57.24900000      50.74800000 
H      68.96100000      54.47300000      50.41600000 
H      70.70500000      55.87000000      52.43800000 
H      70.40500000      54.15100000      52.42400000 
H      71.21800000      54.17400000      49.98300000 
H      71.84500000      55.76500000      50.30900000 
H      72.56200000      53.20900000      51.78300000 
H      73.56600000      54.01300000      50.59400000 
H      73.77700000      55.97100000      52.07300000 
H      72.72900000      55.21300000      53.26200000 
H      75.01700000      54.89000000      53.79500000 
H      74.33400000      53.45300000      53.45000000 
H      75.32000000      54.16700000      52.36300000 
N      67.70500000      54.21000000      52.68300000 
C      66.69600000      54.16700000      53.71300000 
C      67.32500000      53.76700000      55.01900000 
O      68.40500000      53.15500000      55.05700000 
C      65.53400000      53.24200000      53.36700000 
C      65.96500000      51.82800000      53.10300000 
C      64.83700000      50.95400000      52.54800000 
O      63.79300000      51.48300000      52.20500000 
O      65.09500000      49.71200000      52.48400000 
H      68.23400000      53.42300000      52.52700000 
H      66.30100000      55.15400000      53.83000000 
H      64.83200000      53.27200000      54.17800000 
H      65.03600000      53.64400000      52.49100000 
H      66.75800000      51.79300000      52.37600000 
H      66.34300000      51.35500000      53.98900000 
N      66.61200000      54.11000000      56.07500000 
C      67.07300000      53.89900000      57.42000000 
C      65.92700000      53.41300000      58.25700000 
O      64.75600000      53.43900000      57.83800000 
C      67.66100000      55.17400000      58.01300000 
C      68.91100000      55.55300000      57.23500000 
C      66.63900000      56.30300000      57.98100000 
H      65.75400000      54.59700000      55.93500000 
H      67.82400000      53.13500000      57.40500000 
H      67.92700000      54.97900000      59.02300000 
H      69.33100000      56.47600000      57.60500000 
H      69.64700000      54.78200000      57.30200000 
H      68.67500000      55.70700000      56.19300000 
H      67.00700000      57.16000000      58.51000000 
H      66.44700000      56.60700000      56.95100000 
H      65.70300000      56.00800000      58.41500000 
N      66.24700000      52.98400000      59.47200000 
C      65.32600000      52.27300000      60.32600000 
C      65.28400000      52.99000000      61.65500000 
O      66.32800000      53.22300000      62.28300000 
C      65.83100000      50.86300000      60.51600000 
C      65.86400000      50.10400000      59.20500000 
C      66.73400000      48.84900000      59.29800000 
C      64.45800000      49.73100000      58.76800000 
H      67.20700000      52.99600000      59.75000000 
H      64.36600000      52.30100000      59.86600000 
H      66.83500000      50.90900000      60.94400000 
H      65.20400000      50.33500000      61.22700000 
H      66.29400000      50.73900000      58.45400000 
H      66.76700000      48.34200000      58.36400000 
H      67.74600000      49.12100000      59.58100000 
H      66.34600000      48.17700000      60.04900000 
H      64.46900000      49.21600000      57.81900000 
H      64.00700000      49.06300000      59.50400000 
H      63.83100000      50.58900000      58.67000000 
N      64.07200000      53.32300000      62.11600000 
C      63.90200000      53.99500000      63.34700000 
C      62.86500000      53.28700000      64.17400000 
O      61.73800000      53.79000000      64.38200000 
C      63.56100000      55.47500000      63.18900000 
O      62.39800000      55.64300000      62.38300000 
C      64.67800000      56.20200000      62.51300000 
H      63.26900000      53.17700000      61.51500000 
H      64.84000000      53.95200000      63.88000000 
H      63.39100000      55.88100000      64.16200000 
H      61.58400000      55.52400000      62.87300000 
H      64.47700000      57.26000000      62.49300000 
H      65.61500000      56.03800000      63.01900000 
H      64.78500000      55.86200000      61.48500000 
N      55.20000000      52.36800000      57.55400000 
C      55.72800000      51.58200000      58.65900000 
C      55.99400000      50.20500000      58.10600000 
O      55.13300000      49.66500000      57.38100000 
C      54.67200000      51.49000000      59.75700000 
C      54.97800000      50.37400000      60.73600000 
C      54.55500000      52.82500000      60.47400000 
H      54.42500000      51.96200000      57.10700000 
H      56.63700000      52.03100000      59.02700000 
H      53.73300000      51.28200000      59.26300000 
H      54.26000000      50.39300000      61.55200000 
H      54.91200000      49.41100000      60.26100000 
H      55.96700000      50.48600000      61.15000000 
H      53.73200000      52.81600000      61.15300000 
H      55.45900000      53.03600000      61.03100000 
H      54.39500000      53.64100000      59.76900000 
N      57.12500000      49.60700000      58.43300000 
C      57.47800000      48.28000000      57.96600000 
C      57.60800000      47.39000000      59.17100000 
O      58.44700000      47.70000000      60.04700000 
C      58.81900000      48.28600000      57.24100000 
C      59.27000000      46.90800000      56.82200000 
C      58.90400000      46.52300000      55.37700000 
N      60.13800000      46.33700000      54.60600000 
C      60.45700000      45.28000000      53.89200000 
N      61.71700000      45.15300000      53.46800000 
N      59.57100000      44.35000000      53.57500000 
H      57.74900000      50.02600000      59.08900000 
H      56.68800000      47.94000000      57.31800000 
H      58.74100000      48.95100000      56.38500000 
H      59.54100000      48.72800000      57.92300000 
H      60.34500000      46.83300000      56.92300000 
H      58.86200000      46.15600000      57.48400000 
H      58.34600000      45.61000000      55.36600000 
H      58.30700000      47.29500000      54.91500000 
H      60.81900000      47.03000000      54.71800000 
H      62.40400000      45.76300000      53.75900000 
H      61.96800000      44.39800000      52.86400000 
H      58.60100000      44.45600000      53.76600000 
H      59.85100000      43.52600000      53.10300000 
H      57.75548975      53.20211846      47.84336844 
H      58.91996544      56.34427440      45.80751648 
H      62.05802263      61.97742198      46.58555366 
H      59.98537102      64.76043461      47.63962193 
H      59.84106352      51.75585641      62.13221423 
H      63.06849601      52.39273882      64.57260547 
H      54.93831166      53.17411885      57.85680624 
H      57.03297071      46.57629154      59.25596974 
