183
Properties=species:S:1:pos:R:3 pbc="F F F"
N      17.86200000      34.52900000     107.61600000 
C      18.89300000      34.82900000     108.58900000 
C      18.19500000      35.59600000     109.70400000 
O      17.87100000      36.79400000     109.55400000 
C      20.05100000      35.65100000     107.95800000 
C      21.38500000      35.52200000     108.66000000 
C      22.48800000      35.06400000     107.93100000 
C      21.53900000      35.81400000     109.98700000 
C      23.71900000      34.92200000     108.54500000 
C      22.78100000      35.65400000     110.62200000 
C      23.88100000      35.19700000     109.89200000 
H      17.17700000      35.20300000     107.39800000 
H      19.29600000      33.90500000     108.96200000 
H      20.15500000      35.30300000     106.92700000 
H      19.75200000      36.68800000     107.88000000 
H      22.38700000      34.83100000     106.87300000 
H      20.71800000      36.18500000     110.58300000 
H      24.57600000      34.57200000     107.96500000 
H      22.88200000      35.87300000     111.66400000 
H      24.83400000      35.07500000     110.37700000 
N      17.92900000      34.91600000     110.80900000 
C      17.26400000      35.50400000     111.96600000 
C      18.16400000      35.40700000     113.16400000 
O      18.79800000      34.35300000     113.43700000 
C      15.85300000      34.92200000     112.19700000 
C      15.78500000      33.41200000     112.36500000 
C      14.38300000      32.85200000     112.53100000 
O      14.30700000      31.59600000     112.70700000 
O      13.39900000      33.63600000     112.48700000 
H      18.22100000      33.97700000     110.88800000 
H      17.14500000      36.54600000     111.73000000 
H      15.42800000      35.41200000     113.06400000 
H      15.24700000      35.22600000     111.35500000 
H      16.22400000      32.91600000     111.49300000 
H      16.37500000      33.09400000     113.21500000 
N      18.27100000      36.51200000     113.89100000 
C      19.06300000      36.72800000     115.08100000 
C      18.11400000      37.20000000     116.18200000 
O      16.96200000      37.59800000     115.89200000 
C      20.15200000      37.75800000     114.71000000 
C      21.11700000      38.23800000     115.81400000 
C      22.17900000      39.19200000     115.24800000 
C      23.37800000      38.47500000     114.63600000 
N      24.33200000      39.46200000     114.04300000 
H      17.74100000      37.32900000     113.58000000 
H      19.51600000      35.78900000     115.36400000 
H      20.71000000      37.31600000     113.90200000 
H      19.65700000      38.62000000     114.29500000 
H      20.57100000      38.76000000     116.57100000 
H      21.59200000      37.39600000     116.28300000 
H      21.73500000      39.83600000     114.50200000 
H      22.53500000      39.84000000     116.04300000 
H      23.92800000      37.92000000     115.39600000 
H      23.10000000      37.80200000     113.84900000 
H      25.19300000      39.03300000     113.76300000 
H      23.94900000      39.90800000     113.23900000 
H      24.57700000      40.19900000     114.70700000 
N      18.56900000      37.22300000     117.43400000 
C      17.74500000      37.79100000     118.52400000 
C      17.87400000      39.31600000     118.56800000 
O      18.26000000      39.92200000     119.54600000 
C      18.17800000      37.14200000     119.84700000 
H      19.45900000      36.87900000     117.66200000 
H      16.72600000      37.53500000     118.33200000 
H      17.56900000      37.53200000     120.66300000 
H      18.02000000      36.07600000     119.80000000 
H      19.20400000      37.34000000     120.07900000 
N      17.47700000      39.92900000     117.41600000 
C      17.51500000      41.38100000     117.21700000 
C      16.90900000      41.71000000     115.84900000 
O      15.98900000      42.54400000     115.77200000 
C      18.91900000      41.96900000     117.32200000 
H      17.05400000      39.37100000     116.72900000 
H      16.88400000      41.85800000     117.94700000 
H      18.89800000      43.03600000     117.10700000 
H      19.32900000      41.82300000     118.29300000 
H      19.59200000      41.50700000     116.59700000 
N      17.47700000      41.12200000     114.77400000 
C      17.16800000      41.45400000     113.40500000 
C      16.74500000      40.20900000     112.62300000 
O      17.26300000      39.10400000     112.90400000 
C      18.41800000      42.03500000     112.71400000 
C      18.92900000      43.27700000     113.39500000 
O      18.14400000      44.17100000     113.76100000 
N      20.24900000      43.38000000     113.59100000 
H      18.18400000      40.44400000     114.92900000 
H      16.37600000      42.19900000     113.39800000 
H      19.20100000      41.27200000     112.67800000 
H      18.18500000      42.29700000     111.68700000 
H      20.61800000      44.18100000     114.00500000 
H      20.87100000      42.65800000     113.31700000 
N      15.83300000      40.36100000     111.63700000 
C      15.32000000      39.24600000     110.85900000 
C      15.30200000      39.61700000     109.37400000 
O      14.70100000      40.63100000     109.01300000 
C      13.92700000      38.91300000     111.35500000 
O      13.39300000      37.89400000     110.50600000 
H      15.43500000      41.25200000     111.49000000 
H      15.98300000      38.39600000     111.01000000 
H      13.99700000      38.55300000     112.37400000 
H      13.30900000      39.79300000     111.33200000 
H      12.50400000      37.65400000     110.71700000 
N      15.95500000      38.79000000     108.53200000 
C      16.13100000      39.01100000     107.10200000 
C      15.77100000      37.74600000     106.32500000 
O      15.94200000      36.62100000     106.84900000 
C      17.59800000      39.38900000     106.78000000 
C      18.16800000      40.61300000     107.50600000 
C      18.89100000      40.22400000     108.83100000 
C      19.17000000      41.34500000     106.60700000 
H      16.44900000      38.01200000     108.92000000 
H      15.47400000      39.81600000     106.81000000 
H      18.22700000      38.51500000     106.94800000 
H      17.62400000      39.57800000     105.69400000 
H      17.35500000      41.29800000     107.75200000 
H      19.28700000      41.13400000     109.30900000 
H      18.23100000      39.74200000     109.53100000 
H      19.72600000      39.56200000     108.62400000 
H      19.60800000      42.20100000     107.11900000 
H      19.98000000      40.68200000     106.30300000 
H      18.68100000      41.71400000     105.70500000 
N      12.54600000      41.93900000     105.06300000 
C      13.15500000      42.19200000     106.34300000 
C      12.11700000      42.74600000     107.28900000 
O      11.18700000      43.49400000     106.85900000 
C      14.33400000      43.18200000     106.23000000 
H      11.82700000      42.56500000     104.76700000 
H      13.51400000      41.25200000     106.73900000 
H      14.81900000      43.30700000     107.20600000 
H      15.05500000      42.79200000     105.53600000 
H      13.97600000      44.14100000     105.88700000 
N      12.24800000      42.43600000     108.58300000 
C      11.38000000      42.92500000     109.63700000 
C      12.20700000      43.22800000     110.86300000 
O      11.96900000      42.71800000     111.95300000 
C      10.24200000      41.92100000     109.92300000 
H      12.98500000      41.78600000     108.82500000 
H      10.94600000      43.84200000     109.29200000 
H       9.59100000      42.30600000     110.69000000 
H       9.66300000      41.77700000     109.01700000 
H      10.64100000      40.97100000     110.24500000 
N      13.23500000      44.08300000     110.69200000 
C      14.09100000      44.42700000     111.80300000 
C      13.35400000      45.35700000     112.75600000 
O      12.29600000      45.94800000     112.45100000 
C      15.47800000      45.01900000     111.37800000 
C      15.49500000      46.54400000     111.15400000 
C      16.07100000      44.27100000     110.18900000 
C      16.94800000      47.11100000     111.10700000 
H      13.35200000      44.53100000     109.81300000 
H      14.29800000      43.52100000     112.34000000 
H      16.12000000      44.83100000     112.24500000 
H      14.98200000      46.79300000     110.21400000 
H      14.97600000      47.05600000     111.94300000 
H      17.12000000      44.50200000     110.08400000 
H      15.98200000      43.18600000     110.31200000 
H      15.57200000      44.53900000     109.25600000 
H      16.92300000      48.18200000     111.09600000 
H      17.48300000      46.78800000     112.00300000 
H      17.48800000      46.76500000     110.24500000 
N      13.92100000      45.52900000     113.95500000 
C      13.43300000      46.44600000     114.96500000 
C      13.75500000      47.89200000     114.50300000 
O      14.86600000      48.39000000     114.65500000 
C      14.15000000      46.13900000     116.28300000 
C      13.77400000      47.05300000     117.48000000 
C      12.70100000      46.35500000     118.36800000 
C      15.03100000      47.38600000     118.31200000 
H      14.73800000      44.99900000     114.18400000 
H      12.36200000      46.33700000     115.09000000 
H      13.97400000      45.10900000     116.52000000 
H      15.22800000      46.23500000     116.09400000 
H      13.36000000      47.97200000     117.11400000 
H      12.41400000      47.03700000     119.18300000 
H      11.82100000      46.13100000     117.80100000 
H      13.08800000      45.45200000     118.80300000 
H      14.75800000      48.00200000     119.17500000 
H      15.51100000      46.48400000     118.68100000 
H      15.73000000      47.93600000     117.71900000 
H      18.24305845      34.34325519     106.82208985 
H      15.39935666      37.81655685     105.39930947 
H      13.17402816      41.97411282     104.41930153 
H      13.04662593      48.44698019     114.06687711 
