448
Properties=species:S:1:pos:R:3 pbc="F F F"
N      37.95700000      46.21700000      20.07800000 
C      37.80200000      47.60000000      19.67100000 
C      37.10400000      47.66000000      18.31700000 
O      36.43500000      48.68700000      18.00500000 
C      39.14200000      48.30200000      19.58300000 
C      39.88700000      48.45100000      20.94400000 
C      39.37800000      49.65600000      21.77900000 
O      38.65300000      49.47800000      22.69600000 
N      39.77900000      50.84300000      21.39900000 
H      38.91200000      45.86400000      20.17400000 
H      37.13900000      48.09200000      20.35500000 
H      39.79200000      47.72400000      18.92100000 
H      39.01200000      49.26500000      19.12400000 
H      39.74800000      47.57000000      21.55000000 
H      40.92200000      48.57900000      20.75100000 
H      40.44000000      50.97700000      20.60300000 
H      39.51200000      51.63900000      21.86200000 
N      34.47500000      46.72700000      15.24700000 
C      33.10300000      46.23000000      15.08800000 
C      33.08000000      44.86000000      14.53000000 
O      32.22800000      43.99200000      14.89100000 
C      32.23600000      47.18400000      14.21400000 
C      30.82100000      46.75100000      14.06200000 
C      30.04000000      46.83700000      15.37900000 
O      29.85000000      47.98200000      15.86500000 
N      29.66700000      45.76600000      15.94500000 
H      34.72000000      47.52800000      14.74000000 
H      32.65100000      46.14600000      16.07600000 
H      32.29400000      48.17200000      14.67600000 
H      32.72200000      47.26200000      13.23700000 
H      30.31600000      47.41000000      13.36100000 
H      30.72600000      45.73700000      13.65900000 
H      29.82500000      44.82100000      15.57500000 
H      29.16700000      45.78300000      16.84500000 
N      33.56100000      42.14800000      17.23400000 
C      32.37500000      42.01500000      18.10600000 
C      31.29300000      41.23700000      17.40600000 
O      30.69200000      40.32000000      17.96500000 
C      31.83800000      43.37800000      18.59600000 
C      32.76600000      44.09700000      19.53600000 
C      32.12300000      45.28700000      20.28000000 
N      31.67700000      46.40100000      19.41400000 
C      32.45200000      47.40200000      18.92500000 
N      33.70300000      47.44600000      19.21800000 
N      31.90000000      48.28200000      18.18300000 
H      33.82600000      43.07700000      16.94400000 
H      32.64800000      41.43400000      18.95800000 
H      31.57200000      44.00200000      17.72000000 
H      30.89000000      43.17800000      19.10900000 
H      33.12700000      43.43600000      20.27300000 
H      33.65600000      44.46700000      18.97900000 
H      31.25300000      44.94600000      20.79900000 
H      32.81400000      45.67000000      21.01300000 
H      30.67800000      46.47500000      19.26100000 
H      34.22800000      46.77200000      19.75800000 
H      34.29000000      48.17000000      18.79800000 
H      30.91000000      48.23000000      17.85400000 
H      32.42200000      49.04900000      17.79700000 
N      30.97400000      41.53700000      16.13900000 
C      29.98400000      40.88600000      15.38000000 
C      30.30200000      39.41000000      15.18400000 
O      29.44900000      38.53400000      15.38500000 
C      29.72500000      41.58200000      14.05300000 
O      29.21700000      42.88700000      14.41200000 
C      28.76900000      40.89200000      13.10100000 
H      31.46500000      42.35900000      15.69300000 
H      29.03400000      40.88900000      15.95100000 
H      30.69100000      41.72200000      13.55600000 
H      29.21300000      43.49800000      13.65500000 
H      28.57800000      41.47400000      12.27800000 
H      29.16500000      39.92900000      12.79700000 
H      27.80900000      40.69100000      13.64600000 
N      28.44400000      42.34800000      23.59300000 
C      28.81400000      42.63100000      22.24900000 
C      27.96800000      43.65300000      21.61300000 
O      28.34000000      44.15200000      20.45600000 
C      28.73700000      41.33400000      21.39600000 
C      29.73700000      40.29100000      21.75500000 
C      31.08100000      40.44800000      21.50500000 
C      29.30900000      39.05500000      22.31800000 
C      32.00000000      39.46500000      21.79500000 
C      30.22300000      38.08600000      22.61600000 
C      31.57600000      38.24100000      22.37300000 
H      27.97200000      41.51400000      23.83700000 
H      29.83600000      43.01400000      22.23100000 
H      27.74100000      40.95800000      21.48100000 
H      28.88600000      41.64000000      20.36900000 
H      31.43600000      41.36000000      21.05800000 
H      28.28500000      38.93500000      22.52700000 
H      33.05100000      39.59900000      21.60400000 
H      29.87500000      37.14300000      23.05100000 
H      32.27700000      37.49900000      22.62800000 
N      26.79300000      44.02800000      22.09700000 
C      25.76000000      44.76900000      21.36800000 
C      25.97500000      46.26600000      21.57500000 
O      25.16200000      46.98500000      22.12300000 
C      24.39900000      44.31400000      21.80600000 
C      23.24800000      44.71900000      20.86000000 
O      23.63700000      45.31500000      19.73400000 
O      22.13500000      44.47600000      21.16200000 
H      26.54000000      43.67800000      23.04900000 
H      25.91400000      44.55500000      20.34100000 
H      24.37900000      43.21900000      21.83300000 
H      24.13300000      44.65900000      22.78400000 
N      27.09100000      46.76400000      21.01800000 
C      27.53000000      48.12500000      21.02600000 
C      27.97100000      48.47300000      19.66300000 
O      28.92700000      47.77300000      19.09000000 
C      28.65600000      48.38300000      22.05100000 
O      28.06300000      48.08200000      23.33600000 
C      29.17400000      49.80000000      22.04500000 
H      27.74700000      46.06400000      20.57300000 
H      26.67700000      48.72000000      21.30200000 
H      29.45100000      47.69100000      21.85900000 
H      28.65600000      48.12100000      24.03300000 
H      29.88000000      49.95400000      22.80700000 
H      29.63900000      50.05600000      21.08700000 
H      28.33000000      50.51800000      22.19200000 
N      27.40300000      49.49300000      18.99700000 
C      27.71900000      49.96800000      17.70400000 
C      28.07500000      51.46400000      17.83500000 
O      27.76500000      52.12200000      18.78000000 
C      26.54400000      49.92000000      16.70700000 
C      25.63500000      48.64800000      16.77000000 
C      26.14100000      47.46400000      15.94400000 
N      26.13200000      47.75700000      14.55000000 
C      26.54400000      46.95900000      13.53200000 
N      26.88500000      45.74300000      13.80000000 
N      26.61400000      47.45900000      12.28400000 
H      26.69100000      49.96900000      19.52000000 
H      28.55800000      49.41200000      17.32200000 
H      25.88500000      50.75800000      16.89400000 
H      26.93300000      50.04000000      15.71300000 
H      25.52300000      48.33100000      17.78600000 
H      24.65500000      48.93100000      16.40300000 
H      27.11100000      47.15500000      16.24400000 
H      25.44400000      46.61300000      16.13000000 
H      25.76700000      48.70100000      14.24300000 
H      26.81800000      45.33300000      14.68700000 
H      27.25100000      45.14800000      13.07100000 
H      26.41600000      48.39700000      12.07900000 
H      26.89000000      46.85400000      11.54500000 
N      28.68700000      52.01800000      16.76200000 
C      28.96300000      53.44200000      16.61500000 
C      28.33000000      54.05000000      15.38100000 
O      28.80400000      54.90900000      14.74600000 
C      30.44700000      53.72000000      16.50700000 
C      31.18500000      53.89900000      17.89300000 
O      32.19900000      53.29100000      18.07200000 
N      30.64900000      54.72700000      18.69200000 
H      29.03500000      51.39400000      16.01800000 
H      28.53000000      53.91000000      17.43900000 
H      30.98100000      52.92200000      15.98700000 
H      30.62000000      54.64000000      15.97500000 
H      31.09300000      54.89800000      19.59900000 
H      29.85300000      55.33100000      18.51800000 
N      26.97900000      53.59200000      15.07900000 
C      26.32700000      54.12900000      13.88500000 
C      26.50300000      55.64800000      13.76500000 
O      26.85700000      56.12000000      12.64500000 
C      24.85400000      53.80000000      14.03200000 
C      23.96300000      54.38300000      12.88500000 
C      24.01000000      53.64800000      11.59200000 
N      23.21500000      54.34300000      10.57000000 
C      23.15300000      54.12000000       9.30300000 
N      23.77300000      53.07800000       8.78600000 
N      22.47700000      54.89900000       8.49300000 
H      26.62700000      52.91100000      15.57000000 
H      26.77200000      53.72900000      13.01500000 
H      24.74400000      52.70700000      13.99900000 
H      24.48000000      54.13600000      14.96000000 
H      22.92100000      54.41000000      13.26400000 
H      24.22600000      55.43100000      12.72000000 
H      25.00500000      53.55200000      11.22600000 
H      23.59200000      52.63500000      11.71400000 
H      22.66100000      55.15700000      10.92200000 
H      24.28000000      52.39400000       9.37100000 
H      23.80300000      52.87800000       7.80600000 
H      22.02500000      55.72700000       8.81000000 
H      22.40000000      54.71200000       7.48800000 
N      28.51200000      58.07200000      14.87200000 
C      29.81700000      58.61700000      14.66700000 
C      30.40400000      58.20600000      13.29300000 
O      31.04300000      58.99100000      12.65900000 
C      30.75000000      58.26500000      15.87000000 
C      30.11500000      58.51100000      17.20600000 
C      32.11100000      58.99900000      15.72200000 
C      29.73200000      59.94800000      17.54800000 
H      28.41600000      57.26400000      15.51100000 
H      29.72000000      59.72800000      14.62200000 
H      30.96100000      57.19600000      15.77300000 
H      29.21800000      57.88700000      17.31700000 
H      30.80000000      58.12600000      17.95800000 
H      32.74400000      58.73200000      16.58200000 
H      32.64800000      58.73300000      14.83300000 
H      31.97900000      60.07700000      15.74000000 
H      29.28000000      59.99400000      18.54700000 
H      30.63000000      60.59200000      17.59500000 
H      29.05800000      60.38000000      16.86000000 
N      30.14200000      56.97300000      12.93100000 
C      30.66300000      56.45300000      11.67400000 
C      29.96600000      57.04000000      10.46700000 
O      30.68200000      57.14700000       9.36400000 
C      30.64000000      54.90900000      11.63200000 
C      31.50900000      54.26600000      12.66500000 
C      33.00700000      54.33700000      12.40700000 
O      33.42100000      54.66200000      11.24200000 
O      33.78100000      54.06100000      13.39300000 
H      29.60400000      56.34900000      13.47600000 
H      31.74900000      56.75500000      11.58300000 
H      29.58300000      54.61000000      11.79500000 
H      30.90900000      54.58800000      10.64700000 
H      31.33100000      54.63700000      13.65200000 
H      31.27400000      53.18200000      12.72200000 
N      31.13500000      64.45100000      21.59700000 
C      30.76200000      63.31500000      20.77900000 
C      31.87200000      62.26200000      20.71300000 
O      31.63200000      61.09600000      20.80800000 
C      30.37100000      63.79100000      19.38500000 
C      29.03200000      64.55500000      19.33500000 
C      28.77400000      65.23600000      17.98700000 
O      29.74200000      65.56500000      17.28300000 
O      27.55500000      65.46900000      17.70500000 
H      31.23000000      65.36200000      21.13800000 
H      29.90900000      62.80000000      21.26000000 
H      31.13400000      64.37100000      18.97100000 
H      30.26400000      62.88800000      18.72900000 
H      28.19900000      63.90000000      19.55500000 
H      29.03100000      65.32800000      20.08100000 
N      33.08900000      62.79600000      20.51700000 
C      34.28200000      61.87300000      20.40800000 
C      34.52000000      61.13900000      21.69200000 
O      34.78000000      59.89000000      21.65100000 
C      35.50000000      62.66200000      19.99300000 
O      35.31100000      63.25500000      18.71200000 
C      36.76200000      61.81700000      19.87800000 
H      33.25700000      63.72700000      20.41900000 
H      34.06600000      61.13200000      19.62800000 
H      35.68300000      63.46400000      20.72800000 
H      34.81600000      64.15000000      18.78200000 
H      37.56100000      62.39000000      19.47900000 
H      37.05800000      61.42200000      20.84200000 
H      36.56700000      60.95800000      19.21100000 
N      34.49900000      61.79700000      22.84100000 
C      34.78900000      61.10900000      24.08000000 
C      33.70600000      60.10400000      24.44500000 
O      34.06400000      59.03300000      24.94800000 
C      34.99600000      62.10800000      25.24800000 
C      36.20300000      63.04700000      25.13400000 
C      36.25600000      63.93900000      26.35800000 
C      37.56000000      62.26900000      24.96700000 
H      34.31300000      62.77400000      22.84000000 
H      35.70500000      60.53200000      23.95000000 
H      34.10700000      62.69500000      25.35400000 
H      35.10400000      61.50900000      26.15500000 
H      36.08300000      63.66800000      24.26100000 
H      37.07200000      64.66600000      26.29900000 
H      35.32500000      64.49700000      26.47700000 
H      36.40200000      63.35300000      27.27700000 
H      38.37100000      62.97400000      24.99200000 
H      37.68100000      61.56200000      25.76700000 
H      37.59300000      61.75100000      24.02500000 
N      32.49400000      60.41300000      24.19400000 
C      31.39100000      59.38500000      24.48400000 
C      31.64400000      58.19400000      23.56200000 
O      31.49100000      57.03400000      24.07300000 
C      30.02200000      60.03700000      24.18300000 
C      28.88800000      59.06100000      24.49600000 
O      28.85400000      58.57000000      25.66000000 
O      28.04900000      58.83400000      23.60000000 
H      32.18800000      61.29400000      23.83300000 
H      31.45100000      59.08400000      25.45400000 
H      29.92100000      60.89700000      24.81900000 
H      29.94600000      60.34300000      23.16000000 
N      31.97800000      58.35800000      22.32200000 
C      32.23800000      57.25400000      21.41500000 
C      33.34800000      56.37400000      21.91100000 
O      33.22700000      55.11000000      21.97800000 
C      32.52800000      57.76000000      20.00700000 
H      32.04100000      59.28300000      21.93400000 
H      31.33800000      56.59900000      21.40300000 
H      32.62700000      56.94900000      19.32500000 
H      31.73000000      58.40000000      19.70100000 
H      33.44300000      58.33900000      20.01000000 
N      34.50800000      56.98400000      22.22200000 
C      35.65000000      56.16800000      22.67000000 
C      35.33800000      55.48400000      23.98400000 
O      35.70400000      54.28600000      24.14100000 
C      36.89900000      57.10800000      22.77500000 
O      37.14300000      57.56200000      21.44100000 
C      38.10800000      56.40200000      23.32100000 
H      34.61100000      57.93700000      22.09700000 
H      35.87600000      55.42600000      21.96100000 
H      36.63100000      57.95600000      23.40600000 
H      37.60700000      58.34000000      21.40200000 
H      38.95000000      57.07600000      23.30600000 
H      37.97800000      56.08000000      24.37200000 
H      38.35300000      55.53000000      22.73900000 
N      34.65300000      56.12500000      24.90600000 
C      34.33100000      55.47900000      26.16900000 
C      33.39600000      54.30800000      25.99800000 
O      33.55900000      53.29800000      26.69500000 
C      33.72600000      56.57000000      27.13500000 
C      33.28000000      56.00000000      28.50300000 
C      34.40200000      55.31200000      29.32000000 
N      35.53200000      56.17500000      29.51500000 
C      36.83200000      55.77800000      29.69000000 
N      37.15500000      54.46700000      29.75000000 
N      37.77900000      56.69600000      29.80200000 
H      34.37600000      57.09300000      24.77000000 
H      35.21600000      55.08600000      26.60200000 
H      34.46400000      57.32900000      27.24100000 
H      32.86700000      56.99600000      26.66300000 
H      32.93900000      56.87000000      29.08600000 
H      32.49400000      55.35000000      28.42500000 
H      33.99900000      54.99200000      30.25100000 
H      34.70700000      54.42700000      28.77400000 
H      35.38000000      57.16200000      29.58200000 
H      36.42200000      53.76800000      29.74700000 
H      38.03100000      54.19800000      29.78100000 
H      37.60300000      57.63500000      29.70900000 
H      38.71500000      56.40300000      29.97900000 
N      32.37900000      54.38000000      25.09800000 
C      31.50500000      53.24400000      24.92100000 
C      32.24800000      52.06600000      24.36200000 
O      31.97000000      50.89400000      24.75500000 
C      30.31400000      53.62700000      24.00000000 
C      29.33900000      54.58900000      24.66200000 
C      28.28300000      55.13400000      23.70400000 
N      27.37400000      54.11000000      23.17100000 
C      27.40700000      53.62200000      21.97700000 
N      28.26500000      53.97000000      21.01000000 
N      26.45300000      52.64700000      21.61300000 
H      32.23800000      55.21800000      24.59600000 
H      31.12500000      52.92700000      25.86600000 
H      30.71900000      54.07700000      23.08700000 
H      29.81500000      52.70700000      23.71200000 
H      28.82500000      54.03900000      25.50700000 
H      29.84800000      55.40900000      25.11200000 
H      27.65700000      55.85100000      24.25400000 
H      28.75000000      55.68000000      22.93200000 
H      26.68900000      53.77300000      23.80000000 
H      28.96100000      54.66100000      21.19600000 
H      28.24700000      53.53300000      20.12700000 
H      25.81200000      52.35400000      22.26900000 
H      26.50400000      52.26200000      20.71300000 
N      33.19000000      52.24000000      23.43500000 
C      33.98900000      51.17600000      22.87800000 
C      34.91100000      50.58200000      23.87700000 
O      35.11100000      49.34900000      23.96700000 
C      34.70600000      51.60100000      21.59000000 
C      35.61100000      50.53600000      21.03700000 
C      33.64300000      52.00700000      20.50100000 
H      33.36900000      53.19000000      23.10900000 
H      33.30100000      50.33700000      22.61900000 
H      35.28600000      52.49600000      21.82800000 
H      36.06200000      50.86700000      20.09800000 
H      36.41900000      50.28400000      21.71100000 
H      35.05600000      49.62300000      20.82600000 
H      34.17000000      52.36300000      19.63200000 
H      33.08100000      51.13700000      20.22800000 
H      32.99700000      52.76800000      20.83800000 
N      35.58200000      51.42800000      24.74100000 
C      36.42300000      50.92800000      25.79000000 
C      35.64700000      50.05600000      26.75600000 
O      36.07400000      48.99400000      27.18300000 
C      37.08400000      52.07300000      26.58000000 
C      38.17600000      52.87100000      25.81000000 
O      38.63600000      52.40900000      24.81200000 
O      38.47600000      53.93400000      26.37600000 
H      35.48000000      52.41400000      24.59700000 
H      37.19300000      50.28100000      25.37200000 
H      36.32700000      52.74600000      26.92800000 
H      37.55800000      51.64600000      27.43800000 
N      34.41700000      50.56100000      27.17400000 
C      33.61600000      49.80600000      28.12400000 
C      33.17500000      48.49100000      27.57800000 
O      33.16300000      47.47100000      28.27200000 
C      32.44900000      50.63800000      28.57300000 
C      32.76800000      51.73200000      29.55600000 
O      33.88700000      51.78900000      30.09900000 
O      31.79200000      52.61100000      29.77100000 
H      34.12500000      51.43800000      26.87000000 
H      34.23900000      49.56200000      28.99100000 
H      31.88800000      51.02600000      27.74400000 
H      31.73200000      49.96000000      29.11300000 
N      32.74100000      48.45000000      26.25000000 
C      32.30600000      47.19900000      25.68500000 
C      33.49700000      46.19100000      25.64800000 
O      33.28500000      45.04000000      25.92800000 
C      31.79400000      47.43500000      24.26900000 
H      32.68400000      49.27700000      25.76200000 
H      31.56500000      46.73900000      26.29400000 
H      31.39600000      46.51600000      23.86500000 
H      30.94600000      48.15800000      24.33700000 
H      32.52600000      47.83500000      23.62100000 
N      34.66400000      46.61500000      25.27500000 
C      35.82500000      45.76700000      25.15800000 
C      36.12000000      45.18200000      26.54600000 
O      36.39400000      43.89800000      26.60800000 
C      37.01800000      46.61600000      24.64800000 
O      36.69600000      46.97300000      23.33000000 
C      38.34600000      45.86200000      24.59100000 
H      34.77600000      47.62400000      24.98800000 
H      35.65200000      44.98500000      24.50100000 
H      37.12400000      47.49000000      25.26500000 
H      36.34400000      47.91200000      23.26000000 
H      39.10000000      46.51800000      24.24600000 
H      38.64100000      45.51600000      25.60200000 
H      38.28100000      45.01200000      23.96500000 
N      36.13700000      45.90000000      27.59300000 
C      36.40400000      45.41700000      28.93600000 
C      35.27700000      44.49300000      29.38400000 
O      35.56600000      43.43400000      30.03400000 
C      36.72200000      46.54600000      29.90900000 
C      36.85100000      46.07900000      31.35000000 
C      38.02600000      47.26500000      29.47200000 
H      35.94800000      46.90800000      27.49400000 
H      37.29400000      44.74400000      28.86600000 
H      35.89800000      47.27100000      29.84000000 
H      37.09900000      46.91300000      31.98700000 
H      35.93100000      45.64000000      31.72400000 
H      37.64000000      45.33000000      31.44400000 
H      38.21500000      48.10700000      30.11400000 
H      38.86300000      46.58200000      29.55000000 
H      37.97000000      47.62700000      28.45000000 
N      34.02900000      44.81600000      29.11700000 
C      32.93500000      43.93800000      29.52700000 
C      32.97700000      42.63000000      28.76800000 
O      32.69000000      41.56200000      29.39000000 
C      31.55900000      44.64200000      29.23600000 
H      33.81900000      45.69000000      28.65900000 
H      32.99900000      43.71400000      30.53000000 
H      30.77600000      43.99600000      29.54600000 
H      31.51800000      45.55700000      29.80600000 
H      31.45000000      44.87600000      28.19100000 
H      37.57344021      46.09598263      20.88313147 
H      37.17684673      46.89060942      17.68238871 
H      34.62134381      46.93404616      16.11054813 
H      33.75289637      44.58912291      13.84164247 
H      34.28330099      41.81688451      17.65666276 
H      31.21504803      39.13037602      14.88709307 
H      29.18125116      42.32259236      24.10857266 
H      26.33890129      56.23456081      14.55810657 
H      27.97244155      58.70532723      15.21518115 
H      29.00938062      57.32419448      10.53113158 
H      30.51613368      64.57539647      22.23850604 
H      33.22655840      42.62160158      27.79967667 
