558
Properties=species:S:1:pos:R:3 pbc="F F F"
N      43.37000000      48.62700000      42.36800000 
C      42.68400000      48.34700000      41.12400000 
C      43.56700000      46.88900000      40.77200000 
O      42.46600000      45.92300000      40.18200000 
C      43.24400000      49.19000000      40.08000000 
C      42.87400000      48.98100000      38.85500000 
C      41.62700000      48.97200000      38.13300000 
C      43.92700000      48.31200000      37.92600000 
C      41.46100000      48.63800000      36.83600000 
C      43.70600000      47.95800000      37.01200000 
C      42.48100000      47.83400000      35.81300000 
H      43.93700000      49.49100000      42.43100000 
H      41.74500000      48.05700000      41.26900000 
H      42.32100000      50.19600000      40.35500000 
H      43.93700000      49.65500000      40.23200000 
H      40.93900000      49.34700000      38.51900000 
H      44.89400000      48.25800000      38.54100000 
H      40.62200000      48.59400000      36.27800000 
H      44.79100000      47.38400000      36.14000000 
H      42.45400000      47.64700000      35.24200000 
N      42.25000000      44.06800000      42.82700000 
C      40.73800000      43.74300000      42.41900000 
C      40.44000000      43.24800000      41.40800000 
O      39.64200000      42.15100000      41.06100000 
C      39.83600000      45.06400000      42.49100000 
S      39.68200000      45.74200000      44.37500000 
H      42.37700000      45.03000000      42.90800000 
H      40.27200000      43.17200000      43.29100000 
H      40.31600000      45.74500000      41.97800000 
H      39.08700000      44.97900000      42.28600000 
H      41.01900000      46.30600000      44.33200000 
N      41.21500000      43.56000000      39.92300000 
C      41.22400000      43.03300000      38.92200000 
C      41.12500000      41.60600000      38.78500000 
O      40.75300000      40.73400000      38.37600000 
C      41.63300000      43.76700000      37.76000000 
O      40.87600000      43.39400000      36.77900000 
C      43.20900000      43.62500000      37.81400000 
H      41.84700000      44.43100000      40.38100000 
H      39.71300000      43.03500000      38.64000000 
H      41.45800000      44.91000000      38.00800000 
H      41.39600000      43.96800000      35.69100000 
H      43.52900000      44.27100000      36.88300000 
H      43.56400000      43.62700000      38.55800000 
H      43.27600000      42.36900000      37.18200000 
N      38.85000000      39.65300000      41.01800000 
C      37.58600000      39.55300000      40.24800000 
C      37.77400000      38.67100000      39.09600000 
O      36.76200000      37.61500000      38.89800000 
C      37.09700000      40.63400000      39.66800000 
H      39.17100000      40.33900000      41.02200000 
H      36.81100000      38.98100000      41.04400000 
H      36.13100000      40.73400000      39.40900000 
H      36.89500000      41.52500000      40.91700000 
H      37.71200000      41.22800000      39.39900000 
N      38.57800000      38.64900000      38.14400000 
C      38.78400000      38.30100000      37.19700000 
C      39.73800000      36.96300000      36.97500000 
O      39.56200000      36.26500000      35.93800000 
C      39.08300000      38.85100000      35.59400000 
C      37.84800000      40.33700000      35.58900000 
C      37.01900000      39.97500000      35.65900000 
C      38.76900000      41.25700000      35.00100000 
C      35.89200000      41.05900000      35.14200000 
C      37.80400000      42.36100000      34.52700000 
C      36.09800000      42.08900000      34.56400000 
H      39.27000000      39.53000000      38.57400000 
H      37.64000000      37.76100000      36.71500000 
H      40.28300000      39.75600000      36.36700000 
H      39.34300000      38.67000000      35.20900000 
H      36.39500000      39.19300000      36.09600000 
H      39.49700000      41.53300000      34.91100000 
H      34.89200000      40.84200000      35.31600000 
H      38.11900000      43.20000000      34.05500000 
H      35.79600000      42.77600000      34.28900000 
N      23.31500000      36.57300000      27.72400000 
C      23.15900000      36.68400000      28.47400000 
C      22.94600000      38.43100000      28.76800000 
O      22.17500000      38.79200000      29.32900000 
C      24.69800000      36.72800000      29.34000000 
C      24.49000000      37.01300000      30.63800000 
C      24.27800000      36.22500000      31.87600000 
C      24.79000000      38.34700000      31.60800000 
N      24.22300000      36.75300000      33.04300000 
C      24.66000000      38.31000000      32.33000000 
C      25.33200000      39.39000000      30.86500000 
C      25.03000000      39.46700000      33.48700000 
C      25.41800000      40.47200000      31.62800000 
C      25.10300000      40.10200000      33.05200000 
H      24.25900000      35.84200000      26.91400000 
H      22.52200000      36.43600000      29.12200000 
H      24.76000000      35.45200000      29.34200000 
H      25.20300000      36.92300000      28.99400000 
H      23.90300000      35.16800000      31.89000000 
H      23.93500000      36.60100000      33.97400000 
H      25.36300000      39.56300000      29.80100000 
H      24.72800000      39.22200000      34.65800000 
H      25.82700000      41.56800000      31.14000000 
H      25.49800000      41.40100000      33.62200000 
N      23.77900000      38.99700000      27.54400000 
C      23.39100000      40.45000000      27.62500000 
C      22.00400000      40.76100000      27.40300000 
O      21.39400000      41.78000000      27.86700000 
C      24.30800000      41.04800000      26.44800000 
C      25.70500000      41.11200000      26.95900000 
C      26.59600000      41.57400000      25.59500000 
C      25.95500000      42.15000000      28.23000000 
H      24.31600000      38.56600000      27.17300000 
H      23.64400000      41.02200000      28.61500000 
H      24.15000000      40.47100000      25.63900000 
H      23.91900000      41.91100000      26.29700000 
H      25.97100000      40.32500000      27.18700000 
H      27.55500000      41.62600000      25.84500000 
H      26.41400000      40.80900000      24.92500000 
H      26.21600000      42.38800000      25.29400000 
H      26.97700000      42.37500000      28.16100000 
H      25.52800000      43.22200000      27.55400000 
H      25.53300000      41.96700000      28.70100000 
N      19.87900000      40.61700000      30.55600000 
C      20.14000000      41.73600000      31.27000000 
C      19.40900000      42.88100000      30.67400000 
O      18.73700000      43.66200000      31.41300000 
C      21.74000000      42.00000000      31.26100000 
C      22.11700000      43.32600000      32.05900000 
C      22.90100000      43.19400000      33.28700000 
C      22.45400000      44.35600000      30.94400000 
H      20.86400000      40.03600000      29.84500000 
H      19.71900000      41.50200000      32.08200000 
H      22.07700000      41.15200000      31.91900000 
H      22.00700000      41.85500000      30.54700000 
H      20.93900000      43.70700000      32.46600000 
H      23.09800000      43.96500000      33.48000000 
H      22.67100000      42.64700000      33.78800000 
H      24.02600000      42.75800000      32.59100000 
H      22.57100000      45.15400000      31.36200000 
H      23.33700000      43.86000000      30.51300000 
H      21.60900000      44.44800000      30.11400000 
N      28.82500000      32.55100000      30.37800000 
C      27.77900000      34.04100000      31.06000000 
C      28.67800000      34.40500000      32.44400000 
O      28.40600000      35.22900000      32.58500000 
C      26.62000000      32.73600000      31.68300000 
C      25.46100000      32.55600000      30.81800000 
C      26.20000000      32.44500000      29.44200000 
C      24.62200000      32.71800000      31.22900000 
C      24.80400000      32.09800000      27.96700000 
C      23.40800000      32.42400000      29.95100000 
C      23.43500000      32.30900000      29.20200000 
H      28.81500000      32.04900000      30.17700000 
H      27.64200000      34.28800000      30.66700000 
H      27.23900000      31.71500000      31.91200000 
H      26.41700000      33.20400000      32.46200000 
H      26.77600000      32.28500000      28.91400000 
H      24.21600000      32.82900000      32.03000000 
H      24.98700000      32.00800000      27.56700000 
H      22.20300000      32.55800000      30.66500000 
H      22.66600000      32.15000000      28.14500000 
N      29.59600000      33.82700000      33.05800000 
C      30.37300000      34.05800000      34.07800000 
C      31.02300000      35.13400000      33.71900000 
O      31.22900000      36.28200000      34.48300000 
H      29.77800000      32.42200000      32.47600000 
H      29.80100000      34.33500000      34.66900000 
H      30.90900000      33.30100000      34.27600000 
N      31.98800000      34.78200000      31.85100000 
C      32.71300000      36.42800000      31.94600000 
C      31.88400000      37.58900000      31.92800000 
O      32.19800000      38.46200000      32.28600000 
C      33.38400000      35.79000000      30.51100000 
C      34.75000000      35.49300000      30.86000000 
C      33.39200000      37.26100000      29.95000000 
C      34.69000000      34.21900000      31.94000000 
H      31.80500000      34.58700000      32.06900000 
H      33.34800000      36.49700000      32.74200000 
H      32.77200000      35.25800000      30.20100000 
H      35.18400000      35.02900000      30.04900000 
H      35.39000000      36.11000000      31.27900000 
H      34.14900000      36.82500000      28.79100000 
H      32.70500000      37.51500000      29.42000000 
H      34.01200000      37.88000000      30.19000000 
H      35.77500000      33.74500000      31.98900000 
H      34.51200000      34.50100000      32.87900000 
H      34.09500000      33.54100000      31.71800000 
N      30.63900000      37.40700000      30.95900000 
C      30.11000000      38.56800000      31.01900000 
C      29.17000000      39.27400000      32.19400000 
O      29.29100000      40.23000000      32.37100000 
C      28.94600000      38.70400000      29.72200000 
C      28.59200000      39.73500000      29.03400000 
C      28.03700000      37.31700000      29.94700000 
C      29.41700000      40.86100000      28.82900000 
H      30.45400000      36.61500000      30.84800000 
H      30.74500000      39.33700000      30.57400000 
H      29.76600000      38.07800000      28.75600000 
H      27.85000000      39.69300000      28.51200000 
H      27.70100000      40.22000000      30.10500000 
H      27.30400000      37.36000000      29.06600000 
H      28.35800000      36.46500000      30.09800000 
H      27.33700000      37.75300000      30.81900000 
H      29.02800000      41.70700000      28.42500000 
H      29.98600000      41.20100000      29.80000000 
H      30.28700000      40.42700000      28.26400000 
N      28.88900000      38.33800000      32.93800000 
C      28.52700000      38.60000000      34.35400000 
C      29.30000000      39.16400000      34.96700000 
O      29.04300000      40.40400000      35.65800000 
C      27.57200000      37.55900000      34.87200000 
O      26.90900000      37.58200000      36.34700000 
H      28.86200000      37.29600000      32.69600000 
H      27.33900000      39.54900000      33.98200000 
H      26.85400000      37.08200000      34.25100000 
H      28.55200000      36.65300000      35.11900000 
H      26.87100000      37.56700000      36.36900000 
N      30.50800000      38.59200000      35.07900000 
C      31.58600000      39.25000000      35.95700000 
C      31.96600000      40.53000000      35.62900000 
O      32.36100000      41.48700000      36.36500000 
H      30.61600000      37.93800000      34.67900000 
H      31.22100000      39.32200000      36.98800000 
H      32.33500000      38.46800000      35.96000000 
N      32.14500000      40.79900000      33.98700000 
C      32.76300000      42.14400000      33.76800000 
C      31.36900000      42.74100000      34.06000000 
O      32.04900000      44.37300000      34.69900000 
C      32.71000000      41.87900000      31.96000000 
C      32.63500000      43.49900000      31.83000000 
C      33.77700000      41.23200000      31.66700000 
H      31.98900000      39.94000000      33.53800000 
H      33.33700000      42.28400000      34.04000000 
H      31.90700000      41.57200000      31.90800000 
H      32.98600000      43.31500000      30.36000000 
H      31.93300000      43.94800000      31.80200000 
H      33.65300000      43.92600000      32.08100000 
H      33.97300000      41.12800000      30.83800000 
H      34.79900000      41.69900000      32.08000000 
H      33.89300000      40.15900000      32.26100000 
N      30.50000000      42.94300000      34.01400000 
C      29.23500000      43.95700000      34.14200000 
C      29.27500000      43.91000000      35.80200000 
O      29.08100000      45.19700000      36.25700000 
C      28.08300000      43.27600000      33.74300000 
C      27.55300000      43.77100000      32.48100000 
C      28.91800000      43.65900000      31.32400000 
C      26.46000000      44.40200000      32.11600000 
C      28.24600000      44.12600000      30.35200000 
C      26.17700000      44.74500000      30.93100000 
C      27.26900000      44.66500000      29.71000000 
H      30.03300000      41.75200000      33.49200000 
H      29.53600000      44.63000000      33.85800000 
H      27.83100000      42.12400000      33.90500000 
H      26.99600000      43.82600000      34.58800000 
H      29.43400000      43.28700000      31.65200000 
H      25.70900000      44.38300000      32.84000000 
H      29.19300000      44.04200000      29.36400000 
H      25.28200000      45.18800000      30.55500000 
H      26.98100000      45.15100000      28.76300000 
N      29.57600000      43.02400000      36.83400000 
C      29.57900000      43.10000000      37.77800000 
C      30.65500000      44.11700000      38.59100000 
O      30.42100000      44.77100000      39.16500000 
C      30.16500000      41.85200000      38.71800000 
O      30.01000000      41.80500000      40.05600000 
H      29.57900000      42.01400000      36.10000000 
H      28.56900000      43.44600000      38.45300000 
H      28.98000000      40.86900000      38.32700000 
H      30.72700000      41.31000000      38.08700000 
H      30.94200000      41.61300000      40.30500000 
N      31.94300000      44.20000000      38.08000000 
C      32.99900000      44.47400000      38.54000000 
C      33.14100000      45.77500000      37.94500000 
O      34.06600000      46.80000000      38.45600000 
C      34.24000000      43.59000000      38.40000000 
C      34.95300000      43.69300000      37.07900000 
C      35.16600000      44.26000000      39.54300000 
H      31.93300000      42.99700000      37.13000000 
H      32.77200000      44.79200000      39.44200000 
H      33.91000000      42.73700000      38.53800000 
H      35.69300000      43.10900000      37.03400000 
H      34.29200000      43.58000000      36.23100000 
H      35.35200000      44.71600000      36.97300000 
H      36.11100000      43.37800000      39.52100000 
H      35.41900000      44.92400000      39.50000000 
H      34.70800000      43.71000000      40.60500000 
N      32.94900000      45.98300000      36.45100000 
C      33.68800000      47.16200000      35.75000000 
C      33.67300000      48.38500000      36.52300000 
O      34.65600000      49.26600000      36.58700000 
C      33.28500000      47.17500000      34.46800000 
C      34.24200000      48.07100000      33.44700000 
C      31.80800000      47.30400000      34.25300000 
C      35.68900000      47.53400000      33.51700000 
H      32.50100000      45.32800000      35.99000000 
H      34.75400000      46.90900000      35.94100000 
H      33.46800000      45.99500000      34.02800000 
H      33.92500000      48.07900000      32.66800000 
H      34.21900000      48.89200000      34.04300000 
H      31.56800000      47.37600000      33.01300000 
H      31.23200000      46.95200000      34.78600000 
H      31.78200000      48.67300000      34.33000000 
H      36.31300000      48.16000000      32.86000000 
H      36.11100000      47.47000000      34.51800000 
H      35.68400000      46.33800000      33.14400000 
N      32.06500000      48.79200000      36.81700000 
C      32.11800000      50.21900000      37.68100000 
C      33.14900000      50.32500000      38.73100000 
O      33.76900000      51.41700000      38.80600000 
C      30.83000000      50.58000000      37.74900000 
C      29.70300000      50.40900000      37.04500000 
O      29.76000000      49.18300000      36.06000000 
N      28.76700000      51.17600000      36.51100000 
H      31.63300000      48.45300000      36.69800000 
H      32.49500000      50.95000000      36.69700000 
H      30.50600000      49.70000000      38.72100000 
H      30.68900000      51.38600000      38.25100000 
H      28.25100000      51.19500000      36.13100000 
H      28.87800000      51.86200000      37.10700000 
N      32.85500000      49.31800000      39.29400000 
C      33.65800000      49.72400000      40.95900000 
C      35.63000000      49.36700000      40.71200000 
O      35.74200000      49.88300000      41.28600000 
C      33.20400000      48.48400000      41.92800000 
C      33.76200000      47.29400000      41.47100000 
C      31.79500000      48.80100000      41.98400000 
C      32.78900000      46.00300000      42.47700000 
H      32.60900000      48.66200000      39.39400000 
H      33.53900000      50.49900000      41.14400000 
H      33.62400000      48.91000000      42.83100000 
H      33.49000000      46.86600000      40.54300000 
H      34.76200000      47.16700000      41.71500000 
H      31.30300000      48.20400000      42.97400000 
H      31.38000000      49.81300000      42.01800000 
H      31.14400000      48.21000000      41.06200000 
H      33.48500000      45.31100000      42.46400000 
H      33.14200000      46.56800000      43.69100000 
H      32.18400000      46.12300000      42.38100000 
N      35.35800000      48.56300000      39.47200000 
C      36.98700000      48.66800000      39.40400000 
C      37.73700000      49.77400000      39.00700000 
O      38.52100000      50.04800000      39.15200000 
C      37.08900000      47.44900000      38.44500000 
C      38.77000000      47.25100000      37.96700000 
C      39.22900000      46.32900000      39.48800000 
C      39.03500000      46.06700000      36.80800000 
H      34.86900000      48.19700000      39.05300000 
H      37.53500000      48.20300000      40.20700000 
H      36.58500000      46.53100000      38.50000000 
H      36.77000000      47.75300000      37.23000000 
H      39.15500000      47.90600000      37.84800000 
H      40.16100000      46.12700000      39.16700000 
H      39.11400000      47.08700000      40.08700000 
H      38.63700000      45.46700000      39.61400000 
H      39.68600000      45.88200000      36.75000000 
H      38.12200000      45.05000000      37.07300000 
H      38.30700000      46.58000000      35.94400000 
N      36.63000000      50.40100000      38.09900000 
C      37.44500000      52.02000000      37.60300000 
C      37.18700000      52.55400000      39.01600000 
O      38.34300000      53.39700000      39.29700000 
C      36.09900000      52.50000000      36.91600000 
H      36.06500000      50.28200000      37.85700000 
H      38.21500000      51.87900000      37.37600000 
H      36.55700000      53.55800000      36.56900000 
H      36.23500000      51.97500000      35.89200000 
H      35.27400000      52.59900000      37.28100000 
N      36.48300000      52.70100000      39.95900000 
C      36.39800000      53.67300000      41.18100000 
C      37.64200000      53.14200000      41.90500000 
O      38.26300000      53.89900000      42.51100000 
C      35.13800000      53.14600000      41.86500000 
C      33.80700000      53.33300000      41.69600000 
O      33.86200000      54.71100000      40.28000000 
O      32.95200000      53.10200000      41.63300000 
H      35.59000000      52.08000000      39.57300000 
H      36.42400000      54.41300000      40.90800000 
H      35.05200000      51.97200000      42.13200000 
H      35.32900000      53.60600000      42.94900000 
N      38.27200000      52.07000000      42.16900000 
C      38.98400000      51.20800000      42.85200000 
C      40.44600000      51.76400000      42.61500000 
O      41.14800000      51.46000000      43.01800000 
C      38.56100000      49.89300000      42.80700000 
H      37.10900000      50.96500000      41.34400000 
H      38.87600000      51.67200000      43.75700000 
H      39.85900000      49.31200000      43.58300000 
H      38.11000000      49.47200000      43.07600000 
H      39.06000000      49.37200000      41.72800000 
N      40.40300000      52.37000000      41.05400000 
C      41.59400000      52.86700000      40.88400000 
C      42.08700000      54.12000000      41.88300000 
O      43.36600000      54.48500000      41.90300000 
C      41.71300000      53.26100000      39.37000000 
C      42.75800000      52.67700000      38.71000000 
C      42.39100000      53.28300000      37.09500000 
C      44.16700000      53.16100000      39.02500000 
H      39.76100000      52.54000000      40.67000000 
H      42.60800000      52.18100000      41.03900000 
H      40.85800000      53.15000000      39.07400000 
H      41.83600000      54.59200000      39.33800000 
H      42.81500000      51.72400000      38.71500000 
H      43.38100000      52.56300000      36.40000000 
H      41.74000000      52.61800000      36.79800000 
H      42.58000000      54.05000000      36.96300000 
H      45.06500000      52.72500000      38.37900000 
H      44.30300000      54.50200000      38.74500000 
H      44.40100000      53.11000000      40.04000000 
N      34.82100000      46.90600000      51.42900000 
C      33.84000000      46.97100000      50.07700000 
C      34.48600000      46.11200000      48.66000000 
O      33.89800000      45.50800000      48.26400000 
C      33.44700000      48.13100000      49.73300000 
C      32.53100000      48.39600000      48.84000000 
C      33.06800000      48.71100000      47.38400000 
C      31.17900000      48.14900000      48.66600000 
C      32.05600000      48.82400000      46.27500000 
C      30.24300000      48.08900000      47.70100000 
C      31.03600000      48.49100000      46.62700000 
O      30.06800000      48.53800000      45.18000000 
H      34.83400000      47.45700000      51.81900000 
H      33.02100000      46.20900000      50.36300000 
H      32.86800000      48.69300000      50.97200000 
H      34.44900000      48.95300000      49.84200000 
H      34.13600000      49.03600000      47.44400000 
H      30.81300000      47.80500000      49.76900000 
H      32.72500000      49.11600000      45.44700000 
H      29.37100000      47.90700000      47.78500000 
H      29.43300000      48.35200000      45.53100000 
N      35.62400000      47.05800000      48.66100000 
C      36.04300000      46.66400000      47.11100000 
C      36.43600000      44.80000000      46.78700000 
O      36.31900000      44.41400000      46.21300000 
C      37.26000000      47.17100000      46.53200000 
C      36.77400000      48.80100000      46.32400000 
C      35.75700000      48.93900000      45.32600000 
C      37.44800000      49.91800000      47.06900000 
C      35.54100000      50.46000000      45.05000000 
C      36.80500000      51.07500000      46.58500000 
C      36.13600000      51.13300000      45.73700000 
H      35.92100000      47.43800000      48.83000000 
H      35.35600000      46.49200000      46.44500000 
H      38.01900000      47.40800000      47.59800000 
H      37.67800000      46.98200000      45.88400000 
H      35.46100000      48.27200000      44.84500000 
H      38.04000000      49.69400000      47.75400000 
H      34.79800000      50.43000000      44.25700000 
H      37.53900000      52.07800000      47.21400000 
H      35.74100000      52.46900000      45.38800000 
N      33.51300000      42.59800000      47.09000000 
C      32.89900000      43.16200000      45.90800000 
C      33.38100000      42.17000000      44.79600000 
O      32.97100000      41.26300000      43.65500000 
C      32.49200000      44.15400000      45.33400000 
O      31.60200000      44.20300000      44.47400000 
H      33.92600000      43.65600000      47.45800000 
H      31.83700000      42.27600000      45.90000000 
H      32.10800000      44.75900000      46.33500000 
H      33.42300000      44.76000000      45.17700000 
H      31.37200000      45.10000000      43.98900000 
N      35.35500000      42.40000000      44.90500000 
C      35.80700000      41.29300000      43.98300000 
C      35.63200000      39.99100000      44.12500000 
O      35.34700000      39.18500000      43.18800000 
C      37.16000000      41.81400000      43.57500000 
H      35.28200000      42.67100000      45.31700000 
H      35.43000000      41.63300000      42.85500000 
H      37.76600000      41.34200000      43.35100000 
H      37.31300000      42.84500000      43.84400000 
H      37.62300000      41.61000000      45.18200000 
N      32.50300000      39.24200000      42.83900000 
C      32.06400000      38.61600000      41.23600000 
C      32.88600000      37.81000000      40.82000000 
O      32.31800000      36.83400000      40.13600000 
C      33.29400000      40.03700000      40.90400000 
O      32.49700000      41.27000000      41.04800000 
C      33.52200000      39.89000000      39.37900000 
H      32.70700000      39.66900000      43.29500000 
H      31.48200000      38.96400000      40.87600000 
H      34.19800000      39.95500000      41.29900000 
H      32.80800000      41.50000000      42.06400000 
H      33.84400000      40.61900000      38.95700000 
H      33.89000000      39.17000000      39.07300000 
H      32.41500000      39.81800000      38.75200000 
N      30.36200000      34.86500000      41.24300000 
C      29.36700000      34.86200000      40.14600000 
C      30.03800000      34.10700000      39.16700000 
O      29.27100000      33.55700000      38.30500000 
C      28.80400000      36.25200000      40.02000000 
C      28.21800000      36.84100000      41.42300000 
C      28.32700000      36.25000000      38.65000000 
C      26.74800000      36.18100000      41.05500000 
H      30.92600000      35.79500000      41.72600000 
H      28.60300000      34.27100000      40.52400000 
H      30.04300000      37.01900000      40.07600000 
H      28.49000000      36.66200000      41.94600000 
H      27.97700000      37.88800000      41.03100000 
H      27.98500000      37.61700000      38.55000000 
H      29.12100000      36.35200000      37.81200000 
H      27.55900000      35.84300000      38.53000000 
H      26.10900000      36.51800000      41.98800000 
H      26.17700000      36.31700000      40.25500000 
H      26.78200000      35.02100000      41.18800000 
N      31.12900000      34.36900000      38.54200000 
C      31.97600000      34.04100000      37.57200000 
C      31.57000000      32.54600000      37.17700000 
O      31.52700000      31.74700000      36.88200000 
C      33.17100000      34.33900000      37.24800000 
C      33.14900000      36.01400000      36.65400000 
C      33.82500000      33.77800000      36.33900000 
C      34.54700000      36.41800000      36.94200000 
H      31.84400000      35.33900000      39.32600000 
H      31.24300000      34.10400000      36.64200000 
H      33.80300000      34.34600000      38.40200000 
H      32.97600000      35.91100000      36.00900000 
H      32.48800000      36.36700000      37.44300000 
H      35.14800000      33.98100000      36.14600000 
H      34.11800000      32.41700000      36.75000000 
H      33.51800000      33.56600000      35.42300000 
H      34.52900000      37.72300000      36.64500000 
H      34.83100000      36.62200000      38.23400000 
H      35.35000000      36.08900000      36.62100000 
N      28.50200000      30.59700000      37.69600000 
C      27.65800000      30.73600000      36.16600000 
C      28.94100000      29.41300000      35.56700000 
O      27.97900000      28.71000000      34.50500000 
C      28.03900000      31.97500000      35.26000000 
C      27.00400000      32.71000000      35.63800000 
N      26.97600000      33.56900000      36.89200000 
C      25.68300000      32.90700000      35.09800000 
C      25.51800000      34.56700000      37.27500000 
N      25.04600000      33.72500000      35.98300000 
H      28.86300000      31.56200000      37.74300000 
H      27.00800000      30.26000000      36.13000000 
H      29.00400000      32.35900000      35.53600000 
H      27.98400000      31.71200000      34.36900000 
H      27.78900000      33.63600000      37.51500000 
H      25.27000000      32.57300000      34.41600000 
H      25.59700000      34.81400000      37.67700000 
H      42.76847956      48.69568704      43.03392436 
H      44.54766861      46.84028188      40.96151417 
H      42.43851071      43.67869601      43.61624401 
H      41.68664203      41.00858539      39.35741070 
H      38.69576037      39.43714936      41.87801084 
H      40.43256883      36.72587610      37.65422485 
H      22.59880207      36.20832393      27.31894212 
H      21.43847974      40.15361181      26.84508743 
H      19.59419445      39.96702677      31.10955271 
H      19.44548315      43.03839853      29.68713898 
H      29.28885866      32.81615771      29.65375796 
H      41.42034434      54.59030275      42.46126081 
H      34.55200653      46.23357633      51.96331163 
H      36.86887134      44.24893115      47.50040418 
H      32.88192998      42.20732503      47.59904194 
H      35.72300500      39.56974808      45.02736628 
H      31.79039507      39.19218300      43.38646003 
H      33.85795754      37.94115625      41.01518344 
H      29.99142676      34.51697185      41.98566539 
H      30.68403734      32.17751684      37.45858539 
H      27.91629778      30.37836329      38.34341864 
H      29.85894229      29.39147245      35.96312943 
