498
Properties=species:S:1:pos:R:3 pbc="F F F"
N      33.42200000      28.49600000      26.86000000 
C      34.28900000      27.76400000      25.92300000 
C      34.10700000      26.32000000      26.25300000 
O      34.98500000      25.64500000      26.73900000 
C      35.76800000      28.18600000      26.08900000 
C      36.15300000      29.45000000      25.47000000 
C      36.00800000      29.42400000      23.99200000 
C      35.44800000      30.66500000      26.14800000 
H      33.94700000      28.48200000      27.92000000 
H      33.86400000      28.07900000      24.96400000 
H      36.01200000      28.06900000      27.06600000 
H      36.26900000      27.36100000      25.57900000 
H      37.21000000      29.56300000      25.71700000 
H      36.52200000      30.39500000      23.52800000 
H      36.50500000      28.61600000      23.53600000 
H      35.05700000      29.48600000      23.68400000 
H      35.94700000      31.58300000      25.80000000 
H      34.46800000      30.69700000      25.78700000 
H      35.49600000      30.60400000      27.15000000 
N      32.87000000      25.81400000      25.98700000 
C      32.61700000      24.44200000      26.54500000 
C      33.69700000      23.47200000      26.01100000 
O      34.03100000      22.62700000      26.79100000 
C      31.18400000      24.19500000      26.31900000 
C      30.23400000      25.13200000      27.05100000 
C      29.38300000      25.82600000      26.44300000 
C      30.35300000      25.26500000      28.47000000 
C      28.43300000      26.73600000      27.15700000 
C      29.55000000      26.04200000      29.17800000 
C      28.65100000      26.75300000      28.50100000 
O      27.74700000      27.56900000      29.28800000 
H      32.16700000      26.36900000      25.64100000 
H      32.81300000      24.49300000      27.54500000 
H      30.87900000      24.15600000      25.28400000 
H      31.00700000      23.11500000      26.62500000 
H      29.26000000      25.80500000      25.38500000 
H      31.18900000      24.59700000      29.00700000 
H      27.78900000      27.30900000      26.62900000 
H      29.66400000      26.13900000      30.24000000 
H      26.96400000      27.86000000      28.79000000 
N      34.09700000      23.59800000      24.72400000 
C      35.19700000      22.90000000      24.28200000 
C      36.21800000      23.87300000      23.59400000 
O      35.86600000      24.98200000      23.23200000 
C      34.69000000      22.13500000      23.08500000 
C      33.58100000      23.08400000      22.45100000 
C      33.24500000      24.03500000      23.64900000 
H      35.69700000      22.31300000      25.02300000 
H      35.34800000      21.78200000      22.39500000 
H      34.12400000      21.24900000      23.52600000 
H      34.08100000      23.63300000      21.68700000 
H      32.76600000      22.58000000      22.09500000 
H      33.40000000      25.05100000      23.37100000 
H      32.22100000      23.95500000      23.87800000 
N      37.43000000      23.45900000      23.36000000 
C      38.20200000      23.94600000      22.26400000 
C      38.58000000      25.43100000      22.47400000 
O      38.47600000      26.23300000      21.52300000 
H      37.78700000      22.54900000      23.82700000 
H      39.08800000      23.38500000      22.11300000 
H      37.60300000      23.94800000      21.37400000 
N      39.08300000      25.71500000      23.63700000 
C      39.54600000      27.10600000      23.97300000 
C      40.99500000      27.20800000      23.77900000 
O      41.72300000      26.37900000      23.41000000 
C      39.13800000      27.40700000      25.38700000 
H      39.28200000      25.07300000      24.26000000 
H      39.00900000      27.79000000      23.25800000 
H      39.14200000      28.42400000      25.59700000 
H      38.11500000      27.04300000      25.58400000 
H      39.76100000      26.91800000      26.06400000 
N      41.64500000      28.82000000      13.97100000 
C      42.07200000      27.44300000      14.07600000 
C      41.30500000      26.59900000      13.04700000 
O      40.29100000      27.08900000      12.46800000 
C      41.67900000      26.89600000      15.46000000 
C      41.96600000      27.90200000      16.57500000 
C      41.28500000      27.61400000      17.87700000 
N      41.88200000      26.50200000      18.59800000 
C      41.99600000      26.39300000      19.80200000 
N      42.66100000      25.31100000      20.41500000 
N      41.63700000      27.32400000      20.68700000 
H      40.64100000      28.97300000      14.18000000 
H      43.07400000      27.39000000      13.89200000 
H      40.66300000      26.62600000      15.46400000 
H      42.25800000      25.96000000      15.61100000 
H      42.99700000      28.04400000      16.68000000 
H      41.54500000      28.84700000      16.23900000 
H      41.41800000      28.45000000      18.47000000 
H      40.25800000      27.43100000      17.72900000 
H      42.14200000      25.64000000      18.01400000 
H      42.92600000      24.61500000      19.80500000 
H      42.72300000      25.24800000      21.38200000 
H      41.02400000      28.07500000      20.35500000 
H      41.72100000      27.22500000      21.62700000 
N      36.73900000      21.61200000      14.48300000 
C      36.89900000      20.57200000      15.52400000 
C      35.75000000      19.57100000      15.56500000 
O      34.60800000      19.93700000      14.95600000 
C      37.19000000      21.11200000      16.89100000 
C      38.64300000      21.13700000      17.20300000 
S      38.98400000      22.29000000      18.65300000 
C      39.79900000      21.04400000      19.80600000 
H      35.92500000      22.11700000      14.59400000 
H      37.77800000      19.95600000      15.15800000 
H      36.79700000      22.14500000      16.85300000 
H      36.66200000      20.63200000      17.58200000 
H      38.95700000      20.15900000      17.46200000 
H      39.23700000      21.46600000      16.36700000 
H      40.06400000      21.58100000      20.69200000 
H      39.07300000      20.25200000      20.04500000 
H      40.67600000      20.63000000      19.33600000 
N      35.89700000      18.53100000      16.25100000 
C      34.73700000      17.62400000      16.53200000 
C      34.72000000      17.43500000      17.98600000 
O      35.77600000      17.33200000      18.74000000 
C      34.80600000      16.37400000      15.77100000 
O      35.89600000      15.52500000      16.33400000 
C      35.01400000      16.52600000      14.34300000 
H      36.71200000      18.32000000      16.65300000 
H      33.91100000      18.15700000      16.25100000 
H      33.84600000      15.81900000      15.97600000 
H      36.08200000      14.81900000      15.80800000 
H      34.96300000      15.57400000      13.79700000 
H      34.22900000      17.16000000      13.88900000 
H      35.99900000      16.98500000      14.13100000 
N      33.57000000      17.33900000      18.55700000 
C      33.14200000      17.12800000      19.89000000 
C      32.04900000      16.06500000      19.95600000 
O      31.47800000      15.78800000      18.92700000 
C      32.62900000      18.47900000      20.48900000 
C      33.46100000      19.63500000      20.23100000 
C      34.86300000      19.63000000      20.26300000 
C      32.88800000      20.86900000      19.76000000 
C      35.61100000      20.67900000      19.96600000 
C      33.65800000      21.87300000      19.52400000 
C      35.03000000      21.88200000      19.58900000 
O      35.73000000      22.97700000      19.27400000 
H      32.68900000      17.35700000      17.87000000 
H      34.01600000      16.80600000      20.45900000 
H      31.62800000      18.61400000      20.13400000 
H      32.52300000      18.29600000      21.60500000 
H      35.32100000      18.66800000      20.57200000 
H      31.81900000      20.89700000      19.74200000 
H      36.69200000      20.63600000      20.01100000 
H      33.17300000      22.92000000      19.17900000 
H      36.74400000      22.81500000      19.24200000 
N      31.75200000      15.50600000      21.12300000 
C      30.72800000      14.53100000      21.19200000 
C      29.97600000      14.64300000      22.45400000 
O      30.43100000      15.20500000      23.46200000 
C      31.37100000      13.16200000      21.14300000 
O      31.88200000      12.74400000      22.40100000 
H      32.26000000      15.79500000      21.95000000 
H      30.11400000      14.63000000      20.32800000 
H      30.58000000      12.38300000      20.89300000 
H      32.10300000      13.08400000      20.36500000 
H      32.48400000      13.36000000      22.77400000 
N      28.73400000      14.14000000      22.41500000 
C      27.81700000      14.17100000      23.49700000 
C      27.27400000      12.77800000      23.76100000 
O      26.42900000      12.29700000      22.87900000 
C      26.70500000      15.15800000      23.25500000 
C      27.23300000      16.61700000      23.13300000 
C      25.63300000      15.12100000      24.36100000 
C      26.45600000      17.36800000      22.12200000 
H      28.36000000      13.74200000      21.55700000 
H      28.35700000      14.46800000      24.39200000 
H      26.23600000      14.85400000      22.35800000 
H      27.19400000      17.03000000      24.05500000 
H      28.28100000      16.53700000      22.80400000 
H      24.91200000      15.86500000      24.23700000 
H      25.18800000      14.16300000      24.44200000 
H      26.16600000      15.28100000      25.34300000 
H      26.71900000      18.42300000      22.13700000 
H      26.64000000      17.05400000      21.12600000 
H      25.41300000      17.31400000      22.27000000 
N      32.53700000      21.59700000      14.26200000 
C      32.19500000      22.84200000      15.04000000 
C      33.30600000      23.81100000      14.90400000 
O      34.53500000      23.37800000      14.81800000 
C      32.08300000      22.42400000      16.57200000 
C      31.48200000      23.59400000      17.29300000 
C      31.03900000      21.22100000      16.60500000 
H      33.36700000      21.14400000      14.48300000 
H      31.31600000      23.19400000      14.68800000 
H      32.97800000      22.08100000      16.90400000 
H      31.25700000      23.24100000      18.34100000 
H      32.17900000      24.32800000      17.39000000 
H      30.58200000      23.94200000      16.87800000 
H      30.84600000      20.98100000      17.63700000 
H      30.17400000      21.42400000      16.12500000 
H      31.48000000      20.34700000      16.16000000 
N      30.15400000      27.12800000      19.07700000 
C      30.12500000      26.27100000      20.25500000 
C      28.76700000      26.14800000      20.85800000 
O      28.23000000      25.05000000      21.14300000 
C      31.19300000      26.72800000      21.29100000 
C      31.24000000      28.17900000      21.43900000 
C      30.83800000      26.08900000      22.67100000 
H      30.73500000      27.85500000      19.06200000 
H      30.39700000      25.17200000      19.92600000 
H      32.12000000      26.31000000      20.98600000 
H      31.95700000      28.44600000      22.27400000 
H      31.67300000      28.69900000      20.52100000 
H      30.25600000      28.64700000      21.65400000 
H      31.59500000      26.31500000      23.33600000 
H      29.91100000      26.56000000      23.03600000 
H      30.67800000      25.04300000      22.61000000 
N      26.05300000      22.86700000      20.12200000 
C      25.63700000      22.13200000      21.30600000 
C      24.14600000      22.21300000      21.44700000 
O      23.42200000      21.21500000      21.60700000 
C      26.31700000      22.65200000      22.54600000 
C      25.62900000      22.17700000      23.80000000 
C      27.79100000      22.22900000      22.56300000 
H      26.69000000      23.70200000      20.28700000 
H      25.85400000      21.10300000      21.16800000 
H      26.28500000      23.81000000      22.47700000 
H      26.20400000      22.58600000      24.68200000 
H      24.61800000      22.61000000      23.88200000 
H      25.60800000      21.13900000      23.83900000 
H      28.30300000      22.67500000      23.33300000 
H      27.83600000      21.16600000      22.61800000 
H      28.29000000      22.55100000      21.58600000 
N      24.44200000      16.06100000      31.47300000 
C      24.98400000      16.31200000      30.12000000 
C      26.52200000      16.14700000      30.16900000 
O      27.07100000      16.54900000      31.12400000 
C      24.62800000      17.72900000      29.68500000 
C      24.52400000      17.87400000      28.17300000 
C      25.47300000      18.70200000      27.53900000 
C      23.54700000      17.25900000      27.51300000 
C      25.31300000      18.90800000      26.13900000 
C      23.37700000      17.49000000      26.08600000 
C      24.31600000      18.35100000      25.43200000 
O      24.07900000      18.43400000      24.16900000 
H      24.34100000      16.83600000      31.99600000 
H      24.53400000      15.56400000      29.41800000 
H      23.64500000      17.93500000      30.11900000 
H      25.31000000      18.40000000      30.09200000 
H      26.22500000      19.18100000      28.04200000 
H      22.80800000      16.64700000      28.00300000 
H      26.01400000      19.52000000      25.63100000 
H      22.60300000      17.00000000      25.56900000 
H      24.75600000      19.03900000      23.69500000 
N      27.08700000      15.61400000      29.02800000 
C      28.54900000      15.62400000      29.00300000 
C      28.94400000      15.82700000      27.55000000 
O      28.30600000      15.30200000      26.70400000 
C      29.10300000      14.34900000      29.61200000 
O      28.70200000      14.24600000      30.98300000 
C      30.64800000      14.42000000      29.60600000 
H      26.61100000      15.28100000      28.32900000 
H      28.88000000      16.46400000      29.59800000 
H      28.75400000      13.53100000      29.07400000 
H      28.34100000      15.11600000      31.32600000 
H      31.00700000      13.55700000      30.10000000 
H      31.03000000      14.29600000      28.53800000 
H      31.02200000      15.28500000      29.98100000 
N      29.96900000      16.66200000      27.44400000 
C      30.52800000      16.93000000      26.12700000 
C      31.91800000      16.69800000      26.13300000 
O      32.63300000      17.21200000      27.12200000 
C      30.14700000      18.41500000      25.71800000 
C      30.64200000      18.72200000      24.29300000 
C      28.79200000      18.76400000      26.02700000 
H      30.35200000      17.11500000      28.17800000 
H      30.03600000      16.34600000      25.39000000 
H      30.86200000      19.04400000      26.41500000 
H      30.40400000      19.72800000      24.06000000 
H      31.64000000      18.51400000      24.13100000 
H      30.02900000      18.08800000      23.65400000 
H      28.54800000      19.76600000      25.66500000 
H      28.14300000      18.10200000      25.49900000 
H      28.54700000      18.72300000      27.04700000 
N      32.55800000      16.02500000      25.26400000 
C      33.92000000      15.80800000      25.16800000 
C      34.49500000      16.34400000      23.88600000 
O      33.81300000      16.54600000      22.86800000 
C      34.28700000      14.32700000      25.26000000 
O      33.76700000      13.65100000      24.15500000 
H      31.91100000      15.63200000      24.44800000 
H      34.37600000      16.30700000      25.99000000 
H      35.37500000      14.21400000      25.29300000 
H      33.85500000      13.93300000      26.17900000 
H      33.91700000      12.70600000      24.17100000 
N      35.81500000      16.65500000      23.97100000 
C      36.50100000      17.19800000      22.79300000 
C      37.44900000      16.15700000      22.26900000 
O      38.04500000      15.46800000      22.94000000 
C      37.31200000      18.44800000      23.31400000 
C      38.36200000      18.14500000      24.35800000 
C      38.01100000      19.16700000      22.17900000 
H      36.25000000      16.49100000      24.74000000 
H      35.83200000      17.53200000      22.11600000 
H      36.60200000      19.07500000      23.76400000 
H      38.80800000      19.04200000      24.69100000 
H      37.99300000      17.60800000      25.22100000 
H      39.15700000      17.53200000      23.93300000 
H      38.39700000      20.09800000      22.51100000 
H      38.73000000      18.56900000      21.71900000 
H      37.24100000      19.43000000      21.39300000 
N      37.53400000      16.07200000      20.86800000 
C      38.48800000      15.19800000      20.37300000 
C      39.90100000      15.72000000      20.82300000 
O      40.09300000      16.80500000      21.06800000 
C      38.47400000      15.13700000      18.84800000 
C      39.24100000      14.04900000      18.22100000 
O      39.62400000      13.11300000      18.98800000 
O      39.38800000      14.13100000      16.97100000 
H      36.94800000      16.61500000      20.34300000 
H      38.38000000      14.19500000      20.74400000 
H      37.35700000      15.02100000      18.56000000 
H      38.73200000      16.10200000      18.42800000 
N      40.80100000      14.76100000      20.85100000 
C      42.11300000      15.04700000      21.32900000 
C      42.96100000      15.73800000      20.18500000 
O      42.98700000      15.26400000      19.06800000 
C      42.85800000      13.74400000      21.67100000 
H      40.59900000      13.83000000      20.42700000 
H      42.08500000      15.69600000      22.14900000 
H      43.85800000      13.93600000      21.95800000 
H      42.31900000      13.28200000      22.46600000 
H      42.83100000      13.08400000      20.80500000 
N      43.52500000      24.12300000      26.67600000 
C      42.24800000      24.07700000      25.99900000 
C      41.20200000      23.45300000      26.84100000 
O      41.49100000      22.38900000      27.53200000 
C      42.29500000      23.55400000      24.55600000 
C      42.41700000      22.02800000      24.40800000 
C      43.55400000      21.39600000      24.82500000 
C      41.49300000      21.30500000      23.74700000 
C      43.77400000      19.99300000      24.50400000 
C      41.62700000      20.05100000      23.39000000 
C      42.73300000      19.37300000      23.77900000 
O      42.91800000      18.08300000      23.41700000 
H      43.82500000      23.20200000      26.98800000 
H      41.98200000      25.15400000      25.87600000 
H      41.43300000      23.87800000      24.05500000 
H      43.16300000      24.04800000      24.10300000 
H      44.36000000      21.88700000      25.33600000 
H      40.53200000      21.88400000      23.41200000 
H      44.62200000      19.54000000      24.83100000 
H      40.81400000      19.44200000      22.82900000 
H      43.66400000      17.61800000      23.78100000 
N      39.90400000      23.96200000      26.88700000 
C      38.99700000      23.29700000      27.67800000 
C      38.66400000      21.95900000      27.12900000 
O      38.64000000      21.70200000      25.96500000 
C      37.74300000      24.23000000      27.85200000 
C      38.19600000      25.48800000      28.49900000 
C      36.63500000      23.43600000      28.66900000 
C      37.18200000      26.07000000      29.48200000 
H      39.76000000      24.79000000      26.34900000 
H      39.38300000      23.15700000      28.64800000 
H      37.30200000      24.40600000      26.88400000 
H      39.10600000      25.36100000      28.99000000 
H      38.37000000      26.23200000      27.75000000 
H      35.88400000      24.04800000      28.83900000 
H      36.36200000      22.56700000      28.16800000 
H      37.11800000      23.14800000      29.64400000 
H      37.56200000      27.07700000      29.86400000 
H      36.21500000      26.24400000      29.02300000 
H      37.04600000      25.47200000      30.36300000 
N      38.46900000      21.07800000      28.06300000 
C      38.34900000      19.59400000      27.74800000 
C      36.94300000      19.25800000      27.75000000 
O      36.12500000      19.78500000      26.92300000 
C      39.22100000      18.90200000      28.88400000 
O      39.38500000      17.58000000      28.48300000 
H      38.41400000      21.29500000      29.00500000 
H      38.78300000      19.42300000      26.80200000 
H      40.12100000      19.40500000      28.85200000 
H      38.73900000      18.98600000      29.82500000 
H      40.35600000      17.36000000      28.41200000 
N      36.47600000      18.25100000      28.59500000 
C      35.03500000      17.98900000      28.60700000 
C      34.36200000      18.84400000      29.54800000 
O      34.94900000      19.70800000      30.29500000 
C      34.89800000      16.49300000      29.01000000 
O      35.59100000      16.33900000      30.22600000 
H      37.02200000      17.85400000      29.16900000 
H      34.61200000      18.10900000      27.66600000 
H      33.86400000      16.25700000      29.11300000 
H      35.35700000      15.90100000      28.23900000 
H      35.67700000      15.43800000      30.52700000 
N      32.98500000      18.72300000      29.61700000 
C      32.14300000      19.56000000      30.47700000 
C      30.89800000      18.80200000      30.80000000 
O      30.50600000      17.93500000      29.96500000 
C      31.93700000      20.91300000      29.83700000 
C      31.15500000      20.77800000      28.54200000 
C      31.24300000      21.83200000      30.79700000 
H      32.59100000      18.14600000      28.99500000 
H      32.72500000      19.70100000      31.42700000 
H      32.87700000      21.30600000      29.64900000 
H      31.04200000      21.69400000      28.09700000 
H      31.74000000      20.15900000      27.83100000 
H      30.23400000      20.30600000      28.68300000 
H      31.16600000      22.89100000      30.31800000 
H      30.16400000      21.54300000      30.94000000 
H      31.70000000      21.93000000      31.75200000 
N      30.22300000      19.09600000      31.80500000 
C      28.98500000      18.50000000      32.20800000 
C      28.08800000      19.42800000      32.78500000 
O      28.47700000      20.48900000      33.41700000 
C      29.24900000      17.33800000      33.14700000 
H      30.59100000      19.80200000      32.45900000 
H      28.56000000      18.07900000      31.29000000 
H      28.29100000      16.84000000      33.43100000 
H      29.87900000      16.58800000      32.67300000 
H      29.74200000      17.67300000      34.06600000 
N      26.74600000      19.27300000      32.68000000 
C      25.74500000      20.13200000      33.10700000 
C      24.79000000      19.39700000      34.03200000 
O      24.55900000      18.22100000      33.94600000 
C      24.85400000      20.70400000      31.95900000 
C      25.51300000      21.48700000      30.91700000 
C      26.94500000      21.76300000      30.89100000 
C      24.72700000      22.01500000      29.91500000 
C      27.48300000      22.52400000      29.82800000 
C      25.24400000      22.80500000      28.85500000 
C      26.66700000      23.03300000      28.86100000 
O      27.17000000      23.80500000      27.84100000 
H      26.48800000      18.40500000      32.20400000 
H      26.21000000      20.97100000      33.63500000 
H      24.34400000      19.82900000      31.50500000 
H      24.09400000      21.25500000      32.39400000 
H      27.54500000      21.39000000      31.63800000 
H      23.67200000      21.84900000      29.90600000 
H      28.48300000      22.72800000      29.84800000 
H      24.67200000      23.20900000      28.12500000 
H      28.04300000      24.00100000      27.90500000 
N      30.87400000      21.28700000      36.30600000 
C      32.31800000      21.32100000      36.41100000 
C      32.98600000      21.70900000      35.10600000 
O      32.41300000      21.50500000      34.00500000 
C      32.82100000      19.98700000      36.84300000 
O      32.31200000      19.77600000      38.14700000 
H      30.45000000      20.47100000      36.24300000 
H      32.61400000      22.06300000      37.14600000 
H      32.44400000      19.19500000      36.16200000 
H      33.85300000      19.95300000      36.83600000 
H      32.67400000      18.97500000      38.55500000 
N      34.23700000      22.20200000      35.27000000 
C      35.08500000      22.46000000      34.13300000 
C      36.40300000      21.73700000      34.40600000 
O      36.81000000      21.55200000      35.53400000 
C      35.37500000      23.95900000      34.03900000 
C      34.25500000      24.81200000      33.62400000 
C      34.12200000      24.96900000      32.18400000 
C      33.37800000      25.37400000      34.38800000 
C      33.09900000      25.83300000      31.71100000 
C      32.38600000      26.20300000      33.94100000 
C      32.25100000      26.39200000      32.57300000 
O      31.26500000      27.26400000      32.18600000 
H      34.57600000      22.32200000      36.19000000 
H      34.68600000      22.13300000      33.24800000 
H      35.68600000      24.29600000      35.05700000 
H      36.28900000      24.10500000      33.46400000 
H      34.81200000      24.50700000      31.49700000 
H      33.49700000      25.24900000      35.50100000 
H      33.01100000      25.96000000      30.65300000 
H      31.69200000      26.69500000      34.61300000 
H      31.35500000      27.54200000      31.20100000 
N      37.01800000      21.33400000      33.30800000 
C      38.38900000      20.65800000      33.31700000 
C      38.94500000      20.96900000      32.03700000 
O      38.28300000      21.07400000      31.03400000 
C      38.17200000      19.14700000      33.51600000 
O      39.50600000      18.61800000      33.08400000 
C      36.97800000      18.51700000      32.85100000 
H      36.64500000      21.43500000      32.45600000 
H      38.94200000      21.10100000      34.15300000 
H      38.11500000      18.98900000      34.66800000 
H      39.55700000      17.73000000      33.36600000 
H      37.10200000      17.50200000      32.94300000 
H      36.14900000      18.86000000      33.23100000 
H      37.08400000      18.80700000      31.77200000 
H      33.31739465      29.34275417      26.57352994 
H      41.46582963      28.06900343      23.97133448 
H      42.11383777      29.32490760      14.55001595 
H      41.60729259      25.66894943      12.83813372 
H      37.43108969      22.18595363      14.52286347 
H      27.56335291      12.27455656      24.57513733 
H      31.89137419      20.98140597      14.38121119 
H      33.11354717      24.79197127      14.87836275 
H      30.38444090      26.64049458      18.35642005 
H      28.23203075      26.96910862      21.05696867 
H      26.50334075      22.31714466      19.56986567 
H      23.68818869      23.10144019      21.41409350 
H      23.62952804      15.67982460      31.40521632 
H      43.47966967      16.57034009      20.38042709 
H      44.15050912      24.44695893      26.11583131 
H      24.31589004      19.89412278      34.75869710 
H      30.51074152      21.67445786      37.03258082 
H      39.93012839      21.11152514      31.94103838 
