439
Properties=species:S:1:pos:R:3 pbc="F F F"
N      11.15400000       6.95500000      23.16800000 
C      11.04700000       8.29500000      23.26400000 
C      11.00200000       8.74700000      24.60500000 
O      11.00700000       7.87500000      25.65500000 
C       9.53300000       8.60000000      22.69400000 
O       8.63600000       8.03500000      23.46900000 
H      10.63100000       6.44500000      22.49600000 
H      12.19400000       6.73900000      22.72600000 
H      11.20400000       6.37200000      23.95400000 
H      11.70700000       8.91500000      22.68800000 
H       9.44000000       9.80500000      22.61000000 
H       9.54500000       8.30400000      21.58900000 
H       7.72500000       8.29400000      23.29900000 
N      11.04700000      10.09700000      24.87700000 
C      10.84300000      10.56200000      26.33500000 
C       9.48000000      11.14200000      26.34700000 
O       8.83300000      11.61100000      25.63800000 
C      11.91700000      11.88200000      26.51400000 
C      13.10700000      11.57300000      26.66600000 
C      13.73600000      10.90300000      27.74800000 
C      14.36100000      12.10800000      25.66700000 
C      15.05000000      10.64900000      27.99400000 
C      15.55300000      11.85900000      26.00800000 
C      16.01200000      11.16200000      27.02100000 
O      17.36800000      10.93400000      27.31300000 
H      11.09500000      10.65900000      24.20500000 
H      11.13400000       9.96500000      26.96500000 
H      11.66800000      12.56000000      25.53200000 
H      11.44400000      12.45800000      27.26700000 
H      13.01100000      10.52400000      28.43400000 
H      13.94000000      12.60700000      24.87700000 
H      15.39400000      10.12300000      28.86000000 
H      16.32500000      12.24400000      25.27700000 
H      17.58600000      10.37700000      28.00500000 
N       8.85000000      10.94800000      27.66500000 
C       7.62300000      11.41100000      28.11800000 
C       7.64400000      12.56000000      29.02800000 
O       8.34800000      12.46800000      30.03600000 
C       6.80000000      10.12600000      28.70400000 
O       7.58700000       9.70200000      29.88800000 
H       9.49800000      10.42800000      28.43900000 
H       7.05900000      11.64200000      27.15500000 
H       5.86600000      10.52300000      29.04800000 
H       6.71900000       9.42300000      28.00400000 
H       7.73900000      10.20000000      30.46000000 
N       7.03100000      13.55900000      28.88700000 
C       6.89100000      14.73100000      29.37500000 
C       5.74900000      14.83900000      30.63800000 
O       4.85600000      14.59400000      30.30200000 
C       6.67100000      16.04100000      28.39700000 
C       8.06200000      16.10200000      27.61900000 
C       6.39400000      17.45400000      29.14200000 
C       7.88300000      17.03500000      26.45300000 
H       6.30300000      13.58100000      27.87700000 
H       7.94800000      14.93700000      30.02300000 
H       6.00800000      15.79100000      27.95200000 
H       8.87800000      16.44400000      28.26800000 
H       8.27000000      15.16000000      27.24200000 
H       6.40400000      18.06300000      28.60400000 
H       5.54400000      17.29700000      29.75200000 
H       7.26100000      17.60100000      29.95600000 
H       8.71000000      17.01000000      25.80900000 
H       6.99300000      16.87400000      25.86300000 
H       7.82300000      18.11900000      26.76600000 
N      14.73000000      21.27100000      28.36800000 
C      15.75400000      20.57200000      28.07700000 
C      15.85400000      19.92800000      26.77600000 
O      16.96700000      19.37500000      26.25700000 
C      15.76500000      19.41300000      29.21300000 
C      15.81300000      19.75300000      30.47800000 
C      17.43300000      19.81200000      31.03200000 
C      14.93900000      20.11600000      31.54600000 
C      17.55900000      20.17300000      32.43900000 
C      15.47700000      20.39600000      32.61300000 
C      16.53800000      20.48100000      33.25600000 
H      13.98800000      21.24400000      28.84100000 
H      16.78000000      21.03700000      28.25600000 
H      14.63100000      18.95100000      29.09300000 
H      16.34300000      18.56100000      28.82200000 
H      18.16700000      19.59100000      30.32500000 
H      14.03900000      20.04100000      31.11500000 
H      18.66300000      20.17800000      32.67500000 
H      14.36900000      20.69900000      33.51300000 
H      16.80900000      20.71400000      34.18900000 
N      14.76600000      19.94500000      25.79500000 
C      14.71700000      19.53700000      24.68700000 
C      14.63100000      20.35900000      23.49400000 
O      14.46100000      20.28600000      22.48500000 
C      13.30200000      18.62900000      24.48900000 
C      13.16600000      17.47700000      25.48600000 
C      11.92400000      16.63100000      25.47600000 
C      14.23900000      16.66400000      25.67100000 
H      13.91500000      20.49300000      26.37100000 
H      15.45900000      18.78100000      24.44000000 
H      12.46200000      19.33400000      24.56700000 
H      13.26600000      18.20700000      23.56600000 
H      13.03000000      18.08600000      26.61700000 
H      11.62600000      16.20200000      26.07100000 
H      10.90100000      17.54100000      25.23100000 
H      11.89600000      16.24200000      24.45400000 
H      14.10300000      15.76300000      26.36900000 
H      14.49400000      16.12700000      24.68100000 
H      15.25200000      17.06400000      25.96900000 
N      22.35100000      22.97400000      23.60700000 
C      23.39000000      22.11100000      23.88200000 
C      24.58000000      22.27600000      22.95800000 
O      24.51400000      22.35900000      21.98700000 
C      22.92100000      20.65400000      23.89100000 
C      21.68300000      20.34700000      24.67000000 
C      20.54100000      20.44900000      24.44900000 
C      21.92300000      19.91400000      26.24700000 
N      19.85400000      20.05900000      25.65900000 
C      20.56400000      19.76600000      26.76200000 
C      22.96900000      19.68800000      27.00900000 
C      20.45600000      19.39800000      27.96800000 
C      22.79200000      19.34300000      28.30400000 
C      21.39500000      19.17100000      28.68800000 
H      21.93200000      22.86200000      22.67300000 
H      23.68200000      22.30200000      25.04600000 
H      22.61600000      20.47900000      22.79500000 
H      23.77900000      19.94800000      24.04100000 
H      19.96900000      20.63400000      23.63700000 
H      18.65300000      19.99200000      25.71300000 
H      23.99300000      19.84000000      26.65400000 
H      19.37300000      19.30800000      28.33900000 
H      23.61500000      19.10400000      28.94000000 
H      21.31600000      18.86100000      29.82500000 
N      20.21000000      21.62000000      18.99200000 
C      19.32700000      20.49000000      19.67300000 
C      20.39700000      19.39100000      19.64300000 
O      21.15900000      18.99100000      19.05600000 
C      18.37600000      20.27000000      18.40200000 
C      18.38200000      21.30500000      17.68200000 
C      19.55300000      21.95300000      17.60400000 
H      18.98900000      20.77200000      20.34700000 
H      18.72600000      19.34000000      17.80800000 
H      17.39600000      19.80400000      18.91900000 
H      17.84500000      21.26600000      16.58800000 
H      17.50200000      22.18300000      18.15600000 
H      20.25900000      21.56100000      16.84200000 
H      19.68100000      23.11600000      17.51600000 
N      20.07700000      18.45900000      20.93700000 
C      20.74500000      17.36200000      21.14500000 
C      19.58800000      16.30400000      21.65200000 
O      19.17300000      15.61100000      20.76600000 
C      21.94600000      17.41800000      21.85900000 
O      22.40600000      16.21800000      22.51600000 
H      19.36300000      18.93500000      21.54700000 
H      21.03400000      16.92500000      20.25600000 
H      22.73900000      17.99300000      21.41600000 
H      21.75600000      18.24600000      22.95600000 
H      22.99200000      16.23300000      23.16100000 
N      19.27500000      16.32300000      22.78200000 
C      18.06200000      15.28700000      23.12700000 
C      16.70200000      16.07200000      22.60700000 
O      16.61300000      17.25200000      22.61500000 
C      18.00400000      15.44600000      24.70100000 
C      19.16600000      16.19500000      25.32000000 
C      19.61400000      17.00600000      24.09900000 
H      18.15900000      14.54200000      22.78900000 
H      17.04600000      15.95600000      25.09000000 
H      17.85700000      14.35400000      25.09400000 
H      19.11900000      16.54800000      26.06200000 
H      20.07800000      15.31900000      25.30100000 
H      18.99200000      17.99000000      24.14100000 
H      20.64900000      17.26000000      24.07300000 
N      15.86400000      15.32800000      22.09500000 
C      14.64100000      15.61000000      21.71800000 
C      13.49500000      14.53600000      22.12800000 
O      13.92200000      13.67400000      22.79600000 
C      14.62200000      15.90300000      20.14600000 
C      15.47900000      16.94300000      19.69300000 
C      15.33700000      17.11400000      18.10000000 
O      15.58400000      16.27800000      17.37900000 
N      15.02600000      18.27800000      17.88100000 
H      16.08200000      14.19400000      22.12600000 
H      14.32100000      16.55700000      22.10800000 
H      14.79600000      14.82600000      19.58800000 
H      13.43600000      16.09900000      19.77600000 
H      15.28800000      17.85400000      20.16700000 
H      16.46000000      16.67000000      19.84200000 
H      14.78100000      19.10300000      18.32200000 
H      14.90800000      18.57200000      16.64800000 
N      12.31300000      14.90100000      21.60200000 
C      11.29900000      13.63200000      22.07600000 
C      11.73300000      12.39500000      21.48000000 
O      11.49900000      11.28100000      22.24300000 
C       9.84400000      14.06500000      21.73800000 
C       8.85700000      13.03000000      21.87400000 
C       9.51700000      15.37300000      22.52300000 
H      12.01200000      15.41600000      21.27300000 
H      11.31400000      13.59300000      23.21000000 
H       9.93000000      14.41900000      20.57100000 
H       7.85300000      13.42400000      21.64600000 
H       9.04000000      12.18900000      21.22000000 
H       8.84100000      12.67800000      22.88700000 
H       8.46300000      15.73300000      22.15300000 
H       9.41600000      15.15200000      23.51600000 
H      10.13500000      16.23000000      22.36500000 
N      12.24800000      12.20100000      20.38800000 
C      12.55400000      11.08900000      19.65800000 
C      14.07300000      10.86000000      19.62300000 
O      14.42200000       9.61100000      19.03400000 
C      12.18000000      11.15400000      18.07600000 
O      12.80000000      12.38700000      17.66300000 
C      10.47700000      11.38300000      17.98700000 
H      12.34600000      13.22700000      19.78700000 
H      12.10400000      10.28500000      20.05700000 
H      12.43500000      10.35900000      17.62800000 
H      12.67200000      12.49100000      16.68000000 
H      10.36400000      11.39700000      17.01000000 
H      10.09600000      10.50700000      18.40800000 
H      10.26800000      12.22700000      18.48300000 
N      14.99100000      11.44300000      20.02600000 
C      16.36100000      11.42300000      20.18200000 
C      16.91800000      11.50800000      21.54600000 
O      16.83100000      12.27400000      22.13900000 
C      17.09100000      12.58800000      19.19700000 
C      18.68700000      12.17400000      19.14900000 
C      16.73500000      12.58100000      17.74300000 
H      14.61700000      12.51200000      20.57200000 
H      16.57700000      10.37800000      19.56900000 
H      16.93000000      13.35500000      19.73300000 
H      19.11300000      13.02500000      18.69900000 
H      19.08400000      12.22900000      20.24400000 
H      18.87400000      11.36600000      18.78500000 
H      17.04600000      13.26500000      17.32200000 
H      16.75900000      11.63000000      17.29500000 
H      15.46100000      12.73500000      17.79600000 
N      17.55500000      10.08100000      21.87100000 
C      17.81500000      10.09400000      23.45000000 
C      19.35200000      11.00800000      23.50500000 
O      20.06100000      11.11200000      22.57500000 
C      18.23300000       8.63900000      23.58100000 
C      18.28800000       8.36800000      25.12700000 
C      18.33000000       6.83500000      25.47000000 
N      18.38000000       6.86400000      26.92700000 
C      18.38300000       5.35200000      27.54800000 
N      18.41900000       4.55800000      26.91000000 
N      18.32300000       5.63300000      28.91300000 
H      17.60500000       9.49100000      21.33900000 
H      17.33100000      10.41300000      23.89400000 
H      17.44300000       8.06800000      23.24900000 
H      19.12600000       8.25400000      23.07400000 
H      19.36900000       8.78000000      25.50000000 
H      17.66200000       8.79400000      25.60900000 
H      17.49900000       6.43000000      25.07400000 
H      19.20300000       6.34100000      25.04400000 
H      18.32600000       7.48300000      27.44700000 
H      18.41400000       4.34800000      25.86300000 
H      18.41400000       3.48600000      27.41000000 
H      18.31000000       6.33800000      29.43600000 
H      18.32700000       4.62900000      29.40600000 
N      19.44000000      11.32600000      24.75200000 
C      20.76500000      12.04100000      24.95800000 
C      21.94500000      10.93900000      24.69500000 
O      21.80800000       9.88400000      24.91100000 
C      20.74900000      12.30700000      26.61000000 
C      21.97900000      13.13900000      26.98300000 
C      23.32400000      12.94300000      27.06600000 
C      21.59000000      14.59200000      27.31600000 
C      24.18800000      13.55800000      27.29600000 
C      22.73300000      15.45300000      27.63900000 
C      23.91500000      14.99800000      27.65100000 
H      18.86200000      11.21400000      25.46100000 
H      20.86800000      12.89000000      24.54500000 
H      19.90600000      12.71000000      26.81500000 
H      20.88900000      11.34800000      27.10500000 
H      23.50000000      11.74200000      26.79600000 
H      20.67400000      14.87400000      27.32600000 
H      25.32900000      13.32500000      27.33200000 
H      22.42600000      16.41600000      27.87900000 
H      24.81100000      15.69800000      27.90400000 
N      22.95500000      11.47700000      24.07000000 
C      24.03600000      10.55900000      23.56600000 
C      24.62000000       9.76700000      24.90400000 
O      24.59400000      10.06100000      25.94700000 
C      25.20300000      11.49800000      23.13200000 
C      24.30600000      12.79300000      22.67100000 
C      23.27800000      12.81500000      23.50600000 
H      23.82600000      10.01900000      22.89500000 
H      25.75000000      11.98700000      24.14200000 
H      25.88400000      11.16300000      22.57100000 
H      24.95000000      13.65500000      22.52600000 
H      24.08700000      12.44600000      21.54500000 
H      23.32600000      13.55900000      24.29200000 
H      22.22800000      13.18000000      22.90600000 
N      24.57400000      11.30500000      30.10600000 
C      23.02900000      10.56000000      30.01300000 
C      22.47600000      10.42300000      31.33900000 
O      21.31600000      10.65800000      31.67300000 
C      23.14600000       9.20600000      29.31000000 
C      21.80700000       8.46600000      29.34900000 
C      21.65000000       7.30400000      28.29200000 
N      21.88300000       7.43200000      26.91000000 
C      21.88500000       6.66600000      26.11300000 
N      21.92900000       5.39700000      26.33300000 
N      21.90100000       6.85700000      24.62100000 
H      25.08300000      10.76900000      29.61100000 
H      22.42300000      11.25400000      29.53700000 
H      23.48300000       9.44900000      28.27800000 
H      23.79300000       8.64700000      29.71900000 
H      21.43400000       8.32200000      30.13000000 
H      20.92200000       9.27900000      28.75400000 
H      22.70200000       6.63700000      28.73000000 
H      20.94300000       6.71300000      28.61400000 
H      21.82200000       8.51300000      26.63400000 
H      21.91600000       4.99800000      27.28900000 
H      21.95200000       4.57200000      25.62100000 
H      21.90700000       7.94900000      24.51400000 
H      21.93100000       6.42100000      24.11000000 
N      21.99300000      13.85000000      33.07800000 
C      20.61900000      14.63400000      32.51900000 
C      19.31100000      14.06500000      32.92900000 
O      18.54500000      14.67600000      33.11100000 
C      20.90200000      14.44400000      30.89300000 
C      19.56000000      14.92100000      30.07200000 
C      19.57400000      16.05000000      30.11200000 
C      18.88400000      13.86400000      29.57300000 
C      18.13200000      16.62100000      29.14600000 
C      17.71500000      14.34900000      28.75000000 
C      17.56400000      15.58000000      28.61700000 
H      22.45300000      13.48000000      32.64500000 
H      20.66600000      15.51100000      32.69100000 
H      21.78600000      14.97100000      30.60300000 
H      21.10500000      13.30100000      30.71400000 
H      19.97200000      16.89800000      30.43100000 
H      19.06100000      12.90200000      29.59000000 
H      18.11500000      17.62500000      29.08700000 
H      17.12700000      13.58500000      28.29700000 
H      16.62000000      15.99400000      28.00800000 
N      19.36000000      12.39900000      32.82400000 
C      17.92500000      12.03700000      33.21500000 
C      17.80300000      12.16300000      34.67700000 
O      16.33700000      12.34100000      35.08700000 
C      18.00400000      10.51600000      32.70200000 
C      17.73300000      10.32900000      31.29400000 
C      18.05200000       9.10000000      30.43900000 
O      18.28300000       8.08000000      31.11700000 
O      17.96500000       9.12500000      29.31300000 
H      19.90400000      12.04600000      32.64500000 
H      17.20700000      12.42600000      32.72400000 
H      18.99600000       9.98200000      33.04300000 
H      17.20900000       9.92500000      33.26200000 
H      16.74600000      10.70800000      31.01000000 
H      18.45400000      11.21100000      30.73500000 
N      14.33600000      15.00000000      35.05300000 
C      13.37200000      13.81400000      35.47700000 
C      12.57600000      13.08000000      34.17800000 
O      11.80600000      12.52200000      34.49900000 
H      15.42100000      14.37000000      35.25800000 
H      13.65500000      13.12700000      36.20200000 
H      12.45700000      14.48700000      35.97000000 
N      13.43900000      13.38400000      33.20100000 
C      12.74700000      12.59700000      31.93700000 
C      13.21200000      11.15800000      31.99900000 
O      14.21800000      10.70100000      32.53800000 
C      13.38200000      13.24400000      30.53700000 
C      12.81800000      14.54500000      30.21300000 
C      13.66600000      15.19600000      29.27800000 
C      11.44100000      14.65900000      29.96900000 
H      14.09100000      13.78500000      32.98800000 
H      11.77600000      12.65800000      31.90800000 
H      14.47500000      13.28700000      30.76800000 
H      13.20100000      12.65200000      29.87500000 
H      12.94000000      15.33700000      31.34900000 
H      13.30200000      16.32300000      28.96700000 
H      14.73700000      15.40300000      29.55300000 
H      13.67300000      14.70300000      28.35300000 
H      11.02600000      15.59000000      29.63300000 
H      11.23700000      13.93300000      29.04700000 
H      10.72500000      14.24700000      30.70100000 
N      12.24200000      10.11600000      31.29400000 
C      12.40600000       8.91900000      31.37300000 
C      12.31600000       8.35300000      29.95000000 
O      11.33300000       8.70400000      29.23500000 
C      11.45100000       8.17500000      32.26500000 
C      11.33800000       6.64300000      32.24600000 
C      11.44400000       8.60000000      33.75600000 
H      11.50000000      10.68500000      30.96400000 
H      13.41300000       8.58300000      31.74300000 
H      10.35000000       8.56600000      31.88200000 
H      10.65300000       6.26300000      32.84400000 
H      11.14200000       6.29200000      31.16100000 
H      12.34800000       6.28300000      32.47600000 
H      10.77800000       8.26400000      34.30200000 
H      12.44700000       8.34500000      34.10400000 
H      11.45500000       9.75900000      33.81800000 
N      13.23000000       7.56200000      29.55500000 
C      13.27100000       6.95800000      28.08700000 
C      12.42400000       5.54100000      27.93500000 
O      12.78600000       4.70500000      29.03400000 
C      14.70000000       6.62500000      27.66600000 
C      14.82700000       6.35500000      26.31600000 
C      15.08100000       4.82800000      25.89900000 
C      14.68600000       7.06400000      25.09000000 
N      15.17200000       4.76200000      24.53100000 
C      14.86600000       6.16200000      23.99100000 
C      14.50000000       8.18100000      24.76100000 
C      14.85000000       6.68700000      22.52300000 
C      14.43400000       8.75800000      23.41200000 
C      14.64400000       7.76300000      22.61400000 
H      13.93100000       7.25400000      30.06700000 
H      12.73500000       7.60500000      27.50600000 
H      15.20800000       7.65900000      27.77100000 
H      15.15600000       6.05300000      28.34300000 
H      15.23500000       4.07300000      26.46600000 
H      15.30700000       4.02500000      23.98200000 
H      14.32300000       9.06300000      25.63400000 
H      15.02000000       5.82400000      21.84800000 
H      14.25600000       9.80800000      23.27000000 
H      14.58900000       8.26000000      21.33400000 
N      11.79500000       5.27300000      27.32100000 
C      11.16000000       4.06700000      26.86100000 
C      11.51400000       3.67100000      25.51100000 
O      11.36800000       4.63400000      24.34100000 
C       9.59800000       4.08300000      26.80300000 
O       8.99900000       4.99500000      25.92700000 
C       9.06800000       4.34700000      28.26200000 
O      12.09600000       2.37800000      25.18200000 
H      11.48200000       6.21000000      26.40700000 
H      11.50600000       3.37500000      27.46600000 
H       9.26200000       3.04300000      26.65400000 
H       9.47600000       4.94300000      25.09500000 
H       7.96300000       4.43700000      28.25100000 
H       9.42100000       3.81900000      28.98700000 
H       9.40800000       5.52900000      28.49600000 
H       6.04012399      15.11928038      31.55270746 
H      14.99077429      22.03370747      28.76834246 
H      14.76627119      21.34778602      23.55727654 
H      21.68969961      22.84801602      24.20433561 
H      25.50564048      22.30554700      23.33524883 
H      20.28987885      22.31837451      19.55404307 
H      25.07465265       8.88213978      24.80244531 
H      24.52527362      12.14017165      29.77416562 
H      23.05447787      10.10952911      32.09206000 
H      22.54232104      14.44729600      33.46720930 
H      18.62036462      12.12632755      35.25195235 
H      14.17299411      15.22856599      34.19790546 
