435
Properties=species:S:1:pos:R:3 pbc="F F F"
N      42.34300000      46.46100000      70.42800000 
C      42.74300000      44.88400000      71.24400000 
C      41.35600000      45.00800000      72.33100000 
O      41.31000000      46.23500000      72.98700000 
C      43.84300000      45.31200000      71.92000000 
C      45.32800000      45.41100000      71.00900000 
C      46.34500000      45.84300000      71.67000000 
C      45.42900000      44.01000000      70.42500000 
H      42.39500000      47.09000000      70.66300000 
H      42.53600000      44.27900000      70.82500000 
H      43.95200000      46.26200000      72.55300000 
H      44.07200000      44.43100000      72.75200000 
H      45.05100000      46.00900000      70.37900000 
H      47.27500000      45.67000000      71.20800000 
H      46.36600000      46.51300000      72.33600000 
H      46.69100000      44.79200000      72.71700000 
H      46.28500000      43.97500000      69.71100000 
H      45.46400000      43.10000000      71.07500000 
H      44.51800000      43.72700000      69.59800000 
N      39.93700000      43.01600000      75.97900000 
C      40.41900000      42.08500000      76.66400000 
C      38.95300000      42.05800000      77.66100000 
O      38.56700000      43.00000000      78.47600000 
C      41.27200000      42.62200000      77.64100000 
C      42.01000000      42.05000000      78.76800000 
N      42.66000000      42.30800000      79.62300000 
C      41.85600000      40.27600000      78.95900000 
C      43.23900000      41.28100000      80.81000000 
N      42.60400000      40.50000000      79.93900000 
H      39.83700000      44.21400000      76.03600000 
H      40.43600000      41.33700000      76.43300000 
H      42.25300000      42.88900000      76.89600000 
H      41.20300000      43.63900000      78.11700000 
H      41.42300000      39.67500000      78.40700000 
H      43.68100000      41.46500000      81.29700000 
H      42.80600000      39.24400000      80.60800000 
N      47.77700000      39.93400000      82.09300000 
C      48.58900000      39.97200000      80.71600000 
C      49.74400000      40.74100000      80.48400000 
O      49.29500000      42.14100000      81.02400000 
C      47.86200000      39.57900000      79.45600000 
H      47.55000000      40.93300000      82.05100000 
H      49.37300000      38.75500000      80.95100000 
H      48.37600000      39.36600000      78.68200000 
H      47.17000000      38.73000000      79.68700000 
H      47.22000000      40.40100000      79.40700000 
N      50.52500000      40.60400000      79.92300000 
C      51.53300000      41.90000000      79.09200000 
C      51.50300000      41.57100000      78.06400000 
O      51.48500000      40.47300000      76.99400000 
C      53.27300000      41.46900000      79.78200000 
C      53.30400000      41.74700000      81.07600000 
C      54.81500000      41.49700000      81.14900000 
O      55.68100000      40.93800000      80.73400000 
N      55.40400000      42.25800000      82.77500000 
H      50.87200000      39.71700000      79.44900000 
H      51.33200000      42.58900000      79.65200000 
H      53.34100000      40.29200000      79.38200000 
H      53.72100000      42.03800000      78.98000000 
H      53.10500000      42.77500000      81.34700000 
H      52.85400000      41.07900000      81.79000000 
H      54.72500000      42.66200000      83.06400000 
H      56.22300000      42.07200000      82.78500000 
N      51.55000000      43.22800000      77.24800000 
C      51.51100000      43.15900000      75.54000000 
C      53.04900000      43.79500000      75.28300000 
O      53.30700000      44.75700000      76.05900000 
C      50.44900000      43.90400000      75.44600000 
C      49.26000000      43.40300000      75.53100000 
C      48.23500000      42.62800000      76.01300000 
C      47.86600000      44.83400000      75.44200000 
C      47.74600000      42.05000000      76.19200000 
C      47.04000000      43.92600000      75.76100000 
C      46.44100000      43.51100000      76.03700000 
O      44.99300000      42.86600000      76.43100000 
H      51.57200000      43.61200000      77.65400000 
H      51.57700000      42.08900000      75.27800000 
H      50.69700000      45.03600000      75.58000000 
H      50.65400000      44.03900000      74.02800000 
H      49.45900000      41.46000000      76.07300000 
H      48.36600000      45.49300000      75.16100000 
H      46.98600000      40.97000000      76.62400000 
H      45.84500000      45.31000000      75.58800000 
H      44.82900000      42.04600000      76.85300000 
N      53.65800000      43.24100000      74.47700000 
C      54.88300000      44.13200000      74.03200000 
C      54.60300000      44.44300000      72.54200000 
O      54.04300000      43.32400000      71.49000000 
C      56.07500000      42.88000000      73.90100000 
C      56.66400000      42.90100000      75.13200000 
C      55.82900000      41.39000000      76.21100000 
C      57.57700000      43.28200000      76.23700000 
C      56.37300000      41.56600000      77.10000000 
C      57.93100000      43.33300000      76.69700000 
C      57.57200000      42.45200000      78.32800000 
O      57.61900000      42.16700000      79.12100000 
H      53.35200000      42.38300000      73.97800000 
H      55.05700000      44.61400000      74.38500000 
H      55.83500000      41.99100000      73.35000000 
H      56.88600000      43.44700000      73.26100000 
H      55.31600000      41.14700000      75.66700000 
H      58.15200000      44.32800000      75.15200000 
H      55.86300000      40.67700000      78.03600000 
H      58.79900000      43.94400000      77.62300000 
H      57.17600000      41.82100000      79.74000000 
N      54.62900000      45.54900000      72.02200000 
C      54.40000000      46.20400000      70.83600000 
C      55.63600000      47.50100000      70.63100000 
O      55.64200000      47.72900000      70.82700000 
C      53.06500000      47.05400000      70.91800000 
C      51.74000000      46.27200000      71.47800000 
C      52.79200000      47.36400000      69.65500000 
C      50.79000000      46.74000000      72.22100000 
H      55.08300000      46.23100000      72.85900000 
H      54.21600000      45.31700000      70.17200000 
H      53.16200000      47.76300000      71.68800000 
H      51.32700000      45.67500000      70.59700000 
H      52.20900000      45.17500000      72.03800000 
H      51.64300000      48.26800000      69.69400000 
H      53.45300000      48.38000000      69.25400000 
H      52.54400000      46.92400000      68.87400000 
H      50.06300000      46.35100000      72.54900000 
H      51.35900000      47.18400000      73.30500000 
H      50.52100000      47.86900000      71.81200000 
N      56.17100000      46.67300000      69.51100000 
C      57.42300000      47.18100000      69.05400000 
C      57.60300000      47.50800000      67.44700000 
O      57.10400000      46.06500000      66.81800000 
C      58.89100000      46.76400000      69.60800000 
O      58.69300000      46.43400000      70.95700000 
C      59.98500000      46.77200000      69.40600000 
H      56.01500000      45.65100000      68.95300000 
H      57.57300000      48.13300000      69.35200000 
H      58.57900000      45.26100000      69.18100000 
H      59.09700000      45.91200000      71.37300000 
H      60.75300000      46.53800000      69.47300000 
H      60.24100000      46.85400000      67.77300000 
H      60.14400000      47.99900000      69.26200000 
N      53.58300000      51.60700000      77.06000000 
C      53.24200000      50.43000000      77.56200000 
C      54.03400000      49.63900000      77.36100000 
O      52.76900000      47.98200000      76.70600000 
C      51.69900000      50.62400000      78.03500000 
C      51.16900000      50.72500000      79.45100000 
C      51.54100000      52.25500000      79.88800000 
N      50.79800000      52.97700000      79.38100000 
C      49.55000000      53.69200000      79.04600000 
N      48.83100000      52.96800000      80.28800000 
N      48.95000000      54.27800000      78.55700000 
H      53.05200000      51.47000000      75.64900000 
H      53.75400000      50.81300000      78.64700000 
H      51.13200000      51.17300000      77.38300000 
H      51.26400000      49.32400000      77.73000000 
H      50.37000000      50.51200000      79.62200000 
H      51.92400000      50.02600000      80.17800000 
H      51.28500000      52.28200000      81.02100000 
H      52.66200000      52.40000000      79.88900000 
H      51.44900000      53.65800000      78.30300000 
H      49.07700000      52.45700000      80.86000000 
H      47.88000000      53.25700000      80.26900000 
H      49.74700000      54.71500000      77.55700000 
H      48.25800000      54.65400000      78.39400000 
N      54.95200000      49.21500000      77.22000000 
C      56.07800000      48.10200000      76.49300000 
C      56.32500000      46.98700000      77.91200000 
O      57.25200000      47.06100000      78.20700000 
C      57.03400000      48.58700000      75.99400000 
C      57.38100000      47.46100000      75.06900000 
O      56.86500000      46.66100000      74.21800000 
N      59.02900000      47.32100000      74.77500000 
H      55.66600000      49.86700000      77.50500000 
H      55.07200000      47.41100000      75.90300000 
H      56.76200000      49.25500000      75.28300000 
H      57.73000000      48.75000000      76.44600000 
H      59.36000000      46.64200000      74.14500000 
H      59.51600000      47.87800000      75.35600000 
N      55.25000000      46.21300000      78.28100000 
C      55.19600000      45.27700000      79.17100000 
C      55.13600000      45.86800000      80.73000000 
O      55.75600000      46.39000000      81.43100000 
H      54.26900000      46.24100000      77.69600000 
H      54.86400000      44.45800000      79.09000000 
H      56.50500000      45.01900000      79.41300000 
N      53.39600000      45.73700000      80.88900000 
C      53.15100000      46.01900000      82.19400000 
C      51.66100000      45.30000000      82.39700000 
O      51.23600000      44.98200000      81.49600000 
C      52.51900000      47.75300000      82.00400000 
C      52.15900000      48.24200000      83.37500000 
C      53.07200000      48.92800000      83.99600000 
O      53.84800000      47.34200000      85.17100000 
N      53.87600000      49.66700000      84.46600000 
H      53.05200000      45.35900000      80.26700000 
H      53.71400000      46.07600000      82.98000000 
H      53.37500000      48.20700000      81.64100000 
H      51.74300000      47.71600000      81.31300000 
H      51.64500000      49.23600000      83.13900000 
H      51.36900000      47.73600000      83.85100000 
H      53.39100000      50.53300000      83.77100000 
H      54.53000000      49.96700000      84.88100000 
N      51.74700000      44.95200000      83.38300000 
C      50.31100000      43.98900000      84.06200000 
C      49.12600000      44.38500000      83.59100000 
O      48.90500000      45.71300000      84.46200000 
C      50.29000000      42.91100000      85.02700000 
C      50.97600000      44.03900000      86.25900000 
O      49.88800000      43.79300000      87.58500000 
O      51.78700000      45.02800000      86.34200000 
H      51.99400000      45.09200000      84.35700000 
H      50.40500000      43.13700000      83.01800000 
H      49.94200000      42.65000000      85.27300000 
H      51.50300000      42.54400000      85.12000000 
N      48.19300000      44.08700000      82.96800000 
C      46.86300000      44.66700000      82.52300000 
C      45.69400000      43.62100000      83.11300000 
O      45.85100000      42.64500000      83.02500000 
C      46.61100000      44.99300000      81.39800000 
C      47.63800000      45.97800000      80.73900000 
C      47.79900000      46.22100000      79.08900000 
C      47.56600000      47.62100000      81.40800000 
H      48.40300000      43.44600000      82.50100000 
H      46.81300000      45.69900000      83.41800000 
H      46.80800000      44.08200000      80.66600000 
H      45.70000000      45.39100000      81.07800000 
H      48.69900000      45.80600000      81.04100000 
H      48.31900000      46.74600000      78.80800000 
H      47.96500000      45.04500000      78.81500000 
H      46.62000000      46.24100000      78.77500000 
H      48.02000000      48.13400000      80.86800000 
H      46.23200000      47.81500000      80.95800000 
H      47.42800000      47.52500000      82.17400000 
N      39.75900000      46.04700000      79.43400000 
C      40.70500000      47.27600000      78.95800000 
C      40.37500000      46.88300000      77.51500000 
O      40.33100000      46.10100000      76.80300000 
C      42.32000000      46.72100000      79.07200000 
C      43.02200000      47.49300000      78.87800000 
C      43.92000000      48.88500000      78.86500000 
C      44.08300000      47.04100000      77.45800000 
C      44.47200000      49.54100000      78.86600000 
C      45.09500000      47.92800000      76.87100000 
C      45.32200000      49.11100000      77.64500000 
H      39.59500000      45.41100000      79.07700000 
H      40.56800000      48.03500000      79.25100000 
H      42.24000000      46.62500000      80.34700000 
H      42.27100000      45.61000000      78.82400000 
H      42.93300000      49.11000000      80.26000000 
H      43.72800000      46.19900000      77.03600000 
H      44.82700000      50.40800000      79.16700000 
H      45.56300000      47.57000000      76.18600000 
H      46.11000000      49.71400000      77.21700000 
N      55.84300000      43.61000000      65.51400000 
C      55.97800000      42.97200000      66.16400000 
C      55.07600000      42.55800000      67.47500000 
O      55.32500000      43.72800000      68.30900000 
C      57.62700000      42.53000000      66.71900000 
O      58.19300000      42.39700000      65.34500000 
H      56.19600000      44.84400000      65.79600000 
H      55.82000000      41.77800000      65.56100000 
H      57.81200000      43.54500000      67.18800000 
H      57.63700000      41.80900000      67.30200000 
H      59.29600000      42.51300000      65.63000000 
N      54.34300000      41.84300000      67.63700000 
C      53.27200000      41.63900000      68.50500000 
C      53.45600000      40.12900000      69.17200000 
O      53.45800000      39.44900000      68.80600000 
C      51.76600000      41.86500000      68.16600000 
C      50.68800000      41.39400000      69.04200000 
C      51.41000000      43.14300000      67.35100000 
H      54.17500000      40.99600000      66.78500000 
H      53.45500000      42.53000000      69.34200000 
H      51.72700000      41.05600000      67.26500000 
H      49.89100000      41.66300000      68.77900000 
H      50.80900000      40.64600000      69.47200000 
H      50.87500000      42.26200000      69.98800000 
H      50.76600000      43.24300000      67.04400000 
H      51.71200000      43.96400000      68.23800000 
H      52.39300000      43.41900000      66.65800000 
N      53.58500000      40.75500000      70.70600000 
C      53.79100000      39.12300000      71.48900000 
C      52.78800000      39.29700000      72.45100000 
O      52.93500000      40.54700000      73.50700000 
C      55.30200000      39.15300000      72.18300000 
C      55.56600000      38.06500000      72.92100000 
C      56.97200000      38.28900000      73.58500000 
C      57.29300000      37.64100000      74.91500000 
N      58.70300000      37.52600000      75.28900000 
H      53.69100000      41.08600000      71.01300000 
H      53.52700000      38.46100000      71.00700000 
H      55.85800000      38.91600000      71.04000000 
H      55.54500000      40.12400000      72.29100000 
H      54.97800000      38.40900000      73.95900000 
H      55.33200000      37.26900000      72.79100000 
H      57.72200000      37.74100000      72.56600000 
H      57.34400000      39.18200000      73.58300000 
H      56.86300000      37.79800000      75.42000000 
H      57.07500000      36.33200000      74.63900000 
H      58.92300000      37.09600000      75.91900000 
H      59.44600000      37.06700000      74.37900000 
H      59.05800000      38.44600000      75.24300000 
N      51.93400000      38.77600000      73.17800000 
C      50.95200000      38.36700000      74.15100000 
C      51.15900000      37.27100000      74.51000000 
O      51.10200000      36.39300000      74.45200000 
C      49.26200000      38.64600000      73.37600000 
C      49.26800000      39.98900000      72.66900000 
C      48.66200000      38.28500000      74.45900000 
C      47.85400000      39.85300000      71.77700000 
H      51.81800000      37.59600000      72.06300000 
H      51.12300000      39.53400000      74.51700000 
H      49.39300000      37.80700000      72.69300000 
H      49.22000000      40.78200000      73.43200000 
H      50.14100000      40.14700000      71.97400000 
H      47.33200000      38.51600000      74.08000000 
H      48.47100000      37.50000000      74.94800000 
H      48.55200000      39.24500000      75.38900000 
H      47.92300000      41.00500000      71.26300000 
H      47.98800000      39.28000000      71.11400000 
H      47.17600000      39.92300000      72.36500000 
N      51.37500000      37.67400000      76.35300000 
C      51.47500000      36.31000000      76.84800000 
C      50.88700000      36.46100000      78.44100000 
O      50.54000000      38.07900000      78.89500000 
C      53.21600000      36.60300000      77.60100000 
C      53.96200000      37.64900000      77.80500000 
C      55.30700000      37.07000000      78.36000000 
N      56.08300000      38.03900000      79.20300000 
C      57.17200000      37.97500000      79.42000000 
N      57.76200000      36.92500000      79.04900000 
N      57.79400000      38.92500000      80.45400000 
H      51.36400000      38.56600000      76.51400000 
H      51.34200000      35.70000000      76.68200000 
H      53.26100000      35.33500000      77.98800000 
H      53.65600000      36.10100000      76.29700000 
H      53.81400000      38.25100000      77.54000000 
H      53.29400000      37.74100000      79.12800000 
H      55.33700000      36.20300000      78.86400000 
H      55.81900000      37.00200000      77.41100000 
H      55.41800000      38.91500000      79.51600000 
H      57.78400000      36.43500000      78.68600000 
H      59.09600000      36.88900000      79.55300000 
H      57.12800000      39.67200000      80.74000000 
H      58.69100000      38.87800000      80.71600000 
N      54.96900000      32.32900000      83.02100000 
C      54.57300000      33.29300000      81.75600000 
C      54.01900000      32.17400000      80.50700000 
O      55.08400000      30.91400000      80.42500000 
C      55.60400000      33.80600000      81.16500000 
C      55.82100000      35.37500000      82.14600000 
C      57.16300000      35.32400000      82.68900000 
C      55.40500000      36.31900000      82.56500000 
N      56.86600000      36.57800000      83.54100000 
C      55.60300000      36.91200000      82.93000000 
C      53.81200000      36.91200000      81.89800000 
C      55.46500000      38.33000000      83.87900000 
C      53.34100000      37.90000000      82.38800000 
C      53.86900000      38.70500000      83.14300000 
H      55.87100000      31.87200000      82.75400000 
H      53.66200000      33.59800000      81.93300000 
H      56.44100000      33.46400000      80.94900000 
H      55.26000000      34.42900000      80.13600000 
H      57.88500000      34.73400000      82.84200000 
H      57.80800000      36.87900000      84.14200000 
H      53.23900000      36.07100000      81.11900000 
H      55.74800000      38.90900000      84.37400000 
H      52.35800000      38.24900000      81.95500000 
H      53.58700000      39.60400000      83.62700000 
N      53.16300000      32.26100000      76.17300000 
C      52.86100000      32.97200000      75.33300000 
C      51.87800000      32.43200000      74.47300000 
O      51.64900000      31.12400000      74.14400000 
C      54.36300000      32.88100000      74.24900000 
O      55.40700000      33.12800000      75.02600000 
C      54.02500000      33.41700000      73.01300000 
H      53.94200000      31.28500000      76.45800000 
H      52.94200000      33.72900000      75.38800000 
H      54.38200000      31.49800000      74.02800000 
H      56.09800000      32.98500000      74.67500000 
H      55.01500000      33.39500000      72.42200000 
H      53.34600000      33.16400000      72.39000000 
H      53.96500000      34.51900000      73.19300000 
N      51.70600000      35.09000000      68.92400000 
C      52.82200000      35.56200000      68.61200000 
C      52.78400000      35.54300000      67.02900000 
O      52.66300000      34.45900000      66.57000000 
C      53.90000000      35.04200000      69.10100000 
C      55.42000000      35.39500000      68.86600000 
C      56.30200000      34.64500000      69.35700000 
O      56.48000000      33.74800000      69.67000000 
O      57.86600000      35.52600000      69.27700000 
H      51.27400000      34.25600000      68.63200000 
H      52.80600000      36.73000000      68.79600000 
H      53.97100000      35.07700000      70.26900000 
H      53.96900000      33.87400000      68.97100000 
H      55.45600000      35.33900000      67.43300000 
H      55.44700000      36.54500000      68.86200000 
N      40.15000000      38.63300000      73.05000000 
C      40.44100000      37.75200000      73.91000000 
C      39.28200000      37.39800000      74.92300000 
O      39.04200000      38.43600000      75.70200000 
C      42.03800000      37.58200000      74.39800000 
C      41.97900000      38.94800000      75.09700000 
C      42.87800000      37.25500000      73.27300000 
C      43.68100000      39.17900000      75.83100000 
H      40.10800000      39.66000000      73.50400000 
H      40.40000000      36.64500000      73.22000000 
H      41.94700000      36.83000000      75.27200000 
H      42.13700000      39.79800000      74.46800000 
H      41.46700000      39.19800000      75.96300000 
H      43.87100000      37.20500000      73.78500000 
H      42.61900000      36.52100000      72.90600000 
H      42.91800000      38.14400000      72.67100000 
H      43.67300000      39.96600000      76.32900000 
H      43.78500000      38.21100000      76.47600000 
H      44.35000000      39.02000000      75.07800000 
H      42.84411172      46.55081562      69.68582738 
H      40.71691290      44.24350212      72.41532480 
H      40.33100700      43.02881274      75.16992997 
H      38.33904065      41.26943467      77.62609107 
H      47.09020783      39.35683013      82.02094819 
H      57.93867207      48.40306116      67.15341902 
H      53.18726859      52.26180374      77.53395012 
H      44.86621336      43.98555480      83.53946111 
H      40.08188473      45.69782704      80.19808357 
H      40.05202648      47.57525072      76.86964967 
H      56.30992841      43.39093876      64.77644320 
H      50.77510672      35.64762369      79.01187553 
H      55.06210417      32.82996498      83.76286637 
H      53.18307176      32.37064605      79.99459946 
H      53.47887112      32.73566870      76.86935843 
H      51.23036936      33.03796404      74.01106695 
H      51.67520787      34.95414631      69.81315444 
H      52.85957154      36.39849769      66.51673772 
H      40.77306587      38.63624018      72.40055529 
H      38.85580979      36.49368558      74.89897202 
