69
Properties=species:S:1:pos:R:3 pbc="F F F"
N      20.57300000      31.41100000      25.00300000 
C      19.74600000      32.19500000      25.87300000 
C      20.48300000      32.70900000      27.08500000 
O      21.34200000      32.04400000      27.69000000 
C      18.58400000      31.34700000      26.36500000 
C      17.64400000      30.96800000      25.24300000 
C      16.40900000      30.31300000      25.81300000 
N      15.56100000      29.85700000      24.72700000 
C      14.50700000      29.08100000      24.89500000 
N      14.09800000      28.77700000      26.11700000 
N      13.85600000      28.58900000      23.85300000 
H      20.50100000      30.42100000      25.05500000 
H      19.36500000      33.03900000      25.32500000 
H      18.97800000      30.45300000      26.82600000 
H      18.05100000      31.90100000      27.12200000 
H      17.36200000      31.84900000      24.68200000 
H      18.13100000      30.28300000      24.56700000 
H      16.69900000      29.46600000      26.41700000 
H      15.87000000      31.01200000      26.43500000 
H      15.88000000      30.01000000      23.80000000 
H      14.57600000      29.10100000      26.92200000 
H      13.28300000      28.22800000      26.25000000 
H      14.14800000      28.83600000      22.93800000 
H      13.27400000      27.76600000      23.95800000 
N      20.06000000      33.89300000      27.50700000 
C      20.42800000      34.44600000      28.77400000 
C      20.12300000      33.47300000      29.87800000 
O      19.17300000      32.68600000      29.83700000 
C      19.65800000      35.74600000      29.00200000 
C      18.15300000      35.58400000      29.12200000 
C      17.42100000      35.20900000      27.85500000 
O      17.97100000      35.48000000      26.73800000 
O      16.29100000      34.67100000      27.98300000 
H      19.38500000      34.40600000      26.97400000 
H      21.48500000      34.65600000      28.79800000 
H      20.03900000      36.19700000      29.90700000 
H      19.88700000      36.40700000      28.18100000 
H      17.89900000      34.85900000      29.87800000 
H      17.73700000      36.53100000      29.44400000 
N      20.94000000      33.53900000      30.93500000 
C      20.77200000      32.69100000      32.07600000 
C      21.42100000      31.34500000      31.92700000 
O      21.37800000      30.54400000      32.87700000 
H      21.69500000      34.18100000      30.93000000 
H      21.20200000      33.16400000      32.94300000 
H      19.72400000      32.52900000      32.26400000 
N      22.02600000      31.08900000      30.77500000 
C      22.71300000      29.86800000      30.49100000 
C      24.07400000      30.19300000      29.93400000 
O      24.36800000      31.33900000      29.56900000 
C      21.93400000      29.02900000      29.47400000 
C      20.58400000      28.64000000      29.99000000 
C      20.44500000      27.63300000      30.93400000 
C      19.44900000      29.28800000      29.54500000 
C      19.20200000      27.27000000      31.40900000 
C      18.19300000      28.92900000      30.00400000 
C      18.07800000      27.91700000      30.93100000 
O      16.85700000      27.51400000      31.42500000 
H      22.02600000      31.77600000      30.05800000 
H      22.82200000      29.31700000      31.41000000 
H      21.82300000      29.62200000      28.57800000 
H      22.50900000      28.14800000      29.23100000 
H      21.31700000      27.13300000      31.30700000 
H      19.54600000      30.09000000      28.84700000 
H      19.08800000      26.49900000      32.14200000 
H      17.31900000      29.43100000      29.64200000 
H      16.11300000      27.95900000      31.03400000 
H      20.38455987      31.61327787      24.14651066 
H      24.76517758      29.47498519      29.85197393 
