 161 
 
N                23.8861847363       13.4060569535       46.9771108713
C                23.4534014993       14.3229743349       48.0067821610
C                23.7321600794       13.7232490670       49.3748418634
O                23.9542577421       12.5341721116       49.5453711051
C                21.9621720573       14.7123910291       47.8631979731
C                21.0182808358       13.9104520034       48.7069602974
C                20.6164829426       14.4056145328       49.9426565208
C                20.5062609727       12.6955618934       48.2776678259
C                19.7435976703       13.6979613771       50.7411426753
C                19.6209123442       11.9825159514       49.0651567442
C                19.2416754826       12.4740519687       50.3083494270
O                18.3784456588       11.8132247812       51.1262903461
H                24.2441476230       12.5178102884       47.3071604051
H                24.0437419404       15.2432274253       47.9066235535
H                21.8694793987       15.7543326224       48.1619550012
H                21.7096148019       14.6206414681       46.8067922896
H                20.9987767381       15.3563357601       50.2843136149
H                20.7986369810       12.3027301587       47.3156214169
H                19.4420787785       14.0762842555       51.7037683876
H                19.2278698907       11.0381516555       48.7162281601
H                18.1152179210       10.9711550790       50.7323309733
N                23.6465031061       14.6348434158       50.3503093589
C                23.9017943773       14.3630859865       51.7376124013
C                23.1835751491       15.4328500834       52.5477169422
O                22.9147762153       16.5360692129       52.0873153907
C                25.4116087572       14.3543707329       52.0526993434
C                26.1029736430       15.6722553510       51.7397638533
C                27.6508652728       15.4648065872       51.6723368617
O                28.3465977835       16.1742371828       52.4262141870
O                28.0589391696       14.6123181429       50.8590647354
H                23.5408782295       15.6133947126       50.1103285448
H                23.5002526911       13.3696145571       51.9676156161
H                25.5697344827       14.0974218817       53.1029043001
H                25.8834138275       13.5851237828       51.4345083289
H                25.7989845496       16.0255212185       50.7517004387
H                25.8821591135       16.4395403566       52.4839296884
N                22.8269861836       15.0292668306       53.7682141833
C                22.2440477675       15.9034158588       54.7600198915
C                23.1965124705       15.9618130359       55.9504126543
O                23.7739157030       14.9579293717       56.3446210903
C                20.8935398760       15.3460909272       55.2496674885
C                19.9450586278       16.4711562134       55.6525793306
C                18.7156470675       15.9305902533       56.3818488405
C                17.6752798508       17.0335794216       56.5437333407
N                16.5839123569       16.5977678136       57.4537541420
H                23.1899827284       14.1560003969       54.1255254100
H                22.1270770244       16.8861761582       54.2981750226
H                20.4582579956       14.7554213820       54.4420238040
H                21.0806705335       14.6748051654       56.0905533613
H                20.4763592770       17.1782028855       56.2907264658
H                19.6409437683       17.0010787569       54.7497435437
H                18.3058516755       15.0978146447       55.8093135909
H                19.0322327872       15.5538568426       57.3549065046
H                18.1289457839       17.9349922312       56.9589141058
H                17.2478914356       17.2799310387       55.5721063758
H                15.9197433861       17.3724694852       57.5931831645
H                16.0921583385       15.7799721704       57.0617703262
H                16.9771912209       16.3370048631       58.3694451699
N                23.2383593025       17.1406610128       56.5830089673
C                24.0395767258       17.2856924446       57.7817014736
C                23.4078352072       18.4180140776       58.5896600253
O                23.2507799676       19.5509619904       58.1646695320
C                25.5472629203       17.4810552838       57.4859950713
C                26.2728560878       17.8438381147       58.7875624921
C                25.7754526388       18.5158305499       56.3899751090
C                27.7741216231       17.5878467433       58.7270967374
H                22.9208876997       17.9917214888       56.1293187369
H                23.9419425752       16.3376520235       58.3262945776
H                25.9158347694       16.5130574210       57.1260116605
H                26.0869765546       18.8961172113       59.0133220288
H                25.8592149813       17.2458800488       59.6027070158
H                26.8348634915       18.6100366680       56.1674070477
H                25.2816175639       18.2195506222       55.4658633939
H                25.3923147722       19.4847639320       56.6978847438
H                28.2421206538       17.8695186690       59.6672879056
H                27.9693558270       16.5321753949       58.5489455954
H                28.2393134069       18.1604272954       57.9289233634
N                22.9791821036       18.0257340674       59.7984088824
C                22.1772844589       18.8495165625       60.6724868955
C                22.6483394763       18.6999355828       62.1151793822
O                22.7533258517       17.5849621045       62.6262388841
C                20.6889611225       18.4007254282       60.5914899869
O                20.5175083015       17.0839099299       61.0581442054
C                20.1938293388       18.4376660789       59.1427280590
H                23.0913270609       17.0674583589       60.0957948959
H                22.2752438205       19.8880876692       60.3548257152
H                20.1133219711       19.1019418713       61.2205671724
H                21.0670035883       16.9407309250       61.8451954390
H                19.1205605368       18.5934071215       59.1209318296
H                20.6845883275       19.2306695742       58.5869397296
H                20.4337136829       17.4832185821       58.6814993304
N                21.0888470697       23.5369672986       59.8632092308
C                20.8331460529       22.4579103684       58.9285061236
C                21.2644692359       22.8853948516       57.5228542116
O                21.0487278589       24.0021439893       57.0744089802
C                19.3586746020       21.9923021579       59.0442519186
C                18.5632220380       21.9433770819       57.7348379561
C                17.2519163527       21.2391775387       58.0538234043
O                17.0902895102       20.0415417513       57.8882302425
N                16.3092431169       22.0231593543       58.5926853594
H                20.8108779436       24.4806797528       59.6143650298
H                21.4889926719       21.6396253208       59.2414001537
H                19.3532465559       20.9952752852       59.4842156752
H                18.8569496740       22.6616324811       59.7461963402
H                18.3773748667       22.9489852855       57.3588011981
H                19.1088369035       21.3718586305       56.9825592799
H                16.4554449154       23.0079391395       58.7392873142
H                15.4356828455       21.6157332955       58.8885361123
N                21.8843358712       21.9093440847       56.8494032726
C                22.5029690896       22.0677237907       55.5499846520
C                22.0983705089       20.8616738738       54.6945213478
O                22.3027442642       19.7082555352       55.0543058835
C                24.0435414073       22.0674963477       55.6813517502
C                24.5383173597       23.2117339528       56.5716779632
C                24.6820664572       22.1152233092       54.2962426643
C                25.9797891066       23.0098797076       57.0324168464
H                22.1554577349       21.0504177528       57.3176444408
H                22.1423094033       22.9987702057       55.1061135273
H                24.3058692377       21.1219140564       56.1654716276
H                24.4436038973       24.1552593174       56.0318625335
H                23.9026934466       23.2762996325       57.4576178534
H                25.7632569793       22.1459177509       54.3820360196
H                24.4226962981       21.2279072701       53.7243706303
H                24.3421626608       22.9877985881       53.7448617507
H                26.2592972758       23.7872080817       57.7405443000
H                26.0818493219       22.0469364092       57.5309139422
H                26.6712210862       23.0410881104       56.1946692451
N                21.5000081825       21.1701323682       53.5386764320
C                21.2517768041       20.1657827684       52.5283683837
C                22.0734263483       20.5378202151       51.2918297170
O                22.0986297418       21.6766559538       50.8481109893
C                19.7575739579       20.0161308857       52.1757225093
C                19.5655393262       18.7036304657       51.4197004053
C                18.9091439209       20.0407648381       53.4447141765
H                21.4061207749       22.1402917436       53.2611376742
H                21.6172520401       19.2215456820       52.9449728543
H                19.4660637738       20.8522374744       51.5323943816
H                18.5141438752       18.5459415983       51.2054656798
H                20.1154106399       18.7125076262       50.4823361390
H                19.9337355001       17.8709677389       52.0147557706
H                17.8633771057       19.8983837121       53.1896037542
H                19.2277556176       19.2492190436       54.1174002858
H                19.0173742260       20.9910971203       53.9619238565
N                22.7225890774       19.4969443312       50.7496426770
C                23.7464548492       19.6045700012       49.7250541359
C                23.3637920123       18.5695456355       48.6528714525
O                23.7443300439       17.4066141504       48.7478675745
C                25.1006758795       19.2598859661       50.3732075083
C                26.3152995520       19.9302235738       49.7611483798
O                27.0828434225       20.6005073887       50.4364962786
N                26.4703276382       19.7608920282       48.4408714920
H                22.7168674009       18.6056842701       51.2338889461
H                23.7269448692       20.6261479834       49.3317933466
H                25.0815278553       19.5506227170       51.4249334555
H                25.2449535520       18.1759720190       50.3338200388
H                27.2485974358       20.2135344202       47.9795437698
H                25.9109429814       19.0977655065       47.9357150421
H                23.1938873118       13.2148999215       46.4347242334
H                22.8747780410       19.5114149246       62.6539064506
H                20.6592133737       23.3725072470       60.6367515882
H                22.8015572698       18.8427230288       47.8723163897
