 46 
 
N                97.1983525792       55.1716101379      203.9727799076
C                96.2482865137       54.9762579560      202.8426143981
C                97.0871148917       55.2083209250      201.5665843380
O                98.2042321625       55.6973707358      201.6816599559
C                95.1084780623       55.9861763994      202.9212753428
H                96.8220849299       55.8021646632      204.6928670722
H                97.4853144014       54.2859092269      204.4142771847
H                98.0438421890       55.6118057310      203.5154959862
H                95.8466282963       53.9616173478      202.8350351825
H                94.4223353480       55.8336292400      202.0934735975
H                94.5479559318       55.8485005150      203.8424198836
H                95.4882418344       57.0047441549      202.8785300635
N                96.4731815598       54.8954539927      200.4302460048
C                97.1745801851       54.8880853460      199.1647765552
C                96.4773233235       55.7535421704      198.1161696425
O                96.6092068518       55.5373718652      196.9175647392
C                97.4050899228       53.4554871197      198.6510370636
C                96.1826686412       52.7365754628      198.0621045855
C                95.1004933311       52.2798884220      199.0231540029
O                94.7970726882       52.8689125508      200.0591960954
N                94.4481622810       51.1797647017      198.6434514118
H                95.6566928896       54.2573654475      200.4467050865
H                98.1599887447       55.3451079924      199.3402994934
H                98.1488946244       53.5210524140      197.8556921051
H                97.8301121790       52.8649114360      199.4634756013
H                95.7010431483       53.3953561774      197.3349008238
H                96.5473697191       51.8640245768      197.5206336743
H                94.6583973687       50.6908106692      197.7899993946
H                93.6820381387       50.8467219488      199.2088822026
N                95.7726317970       56.7886701408      198.5887442659
C                95.0388248824       57.6928752934      197.7151193715
C                95.9406580262       58.0886611746      196.5460821073
O                95.5412039372       58.1045951780      195.3850735967
C                94.5460573584       58.9419470500      198.4754812569
C                93.8330399311       59.8859036754      197.5070221633
C                93.5989519267       58.5612116884      199.6131648873
H                95.6450136875       56.8886302397      199.5860213307
H                94.1727540279       57.1720547560      197.2853024076
H                95.4134164214       59.4643802002      198.8913518840
H                93.5182040486       60.7855788663      198.0292313650
H                94.4829447786       60.1798828117      196.6861956458
H                92.9494299807       59.4109537853      197.0873544527
H                93.1769923817       59.4662919314      200.0418551212
H                92.7797525580       57.9506714221      199.2425644832
H                94.1069468643       58.0260455566      200.4099499408
H                96.8921610006       58.3466506699      196.7136634607
