 449 
 
N               136.9992408972       65.3857626575      128.2641873243
C               136.9331827284       64.6424729295      127.0270678318
C               136.7023062571       65.5646293758      125.8278467496
O               137.4432411058       65.5436679494      124.8489704318
H               136.4263619240       65.0710774413      129.0411925636
H               137.8659543693       64.0954509688      126.8518197524
H               136.0957098663       63.9489615836      127.1017789572
N               139.7845581814       67.4797217349      125.2773632736
C               140.8015348849       66.6689507483      124.6394841574
C               140.5301632598       66.7013240152      123.1405581782
O               141.3990991854       67.0330834694      122.3318840873
C               140.7988708165       65.2256132069      125.1693595564
C               141.3608893339       65.2014080227      126.5946949013
C               141.6166627936       64.3280916987      124.2409704109
C               141.1600514652       63.8705872409      127.3093566989
H               139.2931543693       67.1011487563      126.0796160277
H               141.7899124593       67.1208755446      124.8092336452
H               139.7588157724       64.8852951152      125.1834201532
H               142.4252287981       65.4322035306      126.5564118120
H               140.8767085596       65.9825380794      127.1823709371
H               141.6424198367       63.3159900482      124.6317711222
H               141.1827457976       64.2982504881      123.2446255076
H               142.6355799372       64.6975568536      124.1561983441
H               141.5134878483       63.9565004734      128.3336926039
H               140.1045497338       63.6087913666      127.3368521017
H               141.7073488224       63.0687361370      126.8233730249
N               139.3132833660       66.3107287475      122.7806010003
C               138.9074485488       66.3085957914      121.3891743951
C               139.2529813019       67.6562988993      120.7553483412
O               140.0208975705       67.7218573224      119.8003577076
C               137.4259801949       66.0045854057      121.2524498767
H               138.6117694739       66.1042568605      123.4842298524
H               139.5054490441       65.5568689087      120.8517863442
H               137.1075813342       66.1743248490      120.2263127584
H               137.2232375416       64.9732849407      121.5263917918
H               136.8560975079       66.6619905808      121.9023942707
N               142.9386252949       68.3861641987      120.2920940983
C               143.5013035874       67.4719907941      119.3235715854
C               143.1099497737       67.9217729323      117.9179185221
O               143.9282069308       67.9636952696      117.0070736083
C               143.0266524545       66.0275995643      119.6054781623
O               143.3784872002       65.6239416233      120.9042570735
C               143.6741894011       65.0524997099      118.6289648580
H               142.2414278253       68.0335481606      120.9353470714
H               144.5964835634       67.5108577995      119.3913188010
H               141.9311983525       66.0153767100      119.4872962949
H               142.8276433758       66.0967185282      121.5459038650
H               143.2899577507       64.0544693583      118.8146378606
H               143.4636339883       65.3412471607      117.6047490963
H               144.7479443176       65.0441754424      118.7920470873
N               149.2637874773       64.4152021564      128.4670827806
C               149.0450709055       63.3066633433      127.5557902086
C               149.2422968288       63.8056072228      126.1204997131
O               148.6045698955       64.7528014088      125.6728821463
C               147.6290037560       62.7443822763      127.7513675389
C               147.3200209351       61.7026796308      126.6776638054
C               147.4856800770       62.1335539049      129.1435546871
H               148.4440586113       64.7829079020      128.9368288649
H               149.7885809763       62.5334115492      127.7831126124
H               146.9284419256       63.5795468611      127.6561832921
H               146.3163442208       61.3126960780      126.8218652341
H               147.3732131008       62.1371295978      125.6816640079
H               148.0187661399       60.8711929611      126.7357276497
H               146.4680548773       61.7790127294      129.2844715417
H               148.1605668434       61.2888796377      129.2629942962
H               147.6978453164       62.8623645817      129.9224405393
N               148.5917380536       63.7203912840      122.8616110588
C               147.3862274201       63.3143824697      122.1711632839
C               147.6011271585       62.8015382560      120.7449545269
O               146.7699075068       62.0652342782      120.2352175915
C               146.3562123977       64.4653536270      122.1700438640
C               145.8328294590       64.7213778001      123.5820621128
C               146.9388623384       65.7432975816      121.5725691383
H               148.5152339038       64.5616060094      123.4200517765
H               146.9438452676       62.4579491673      122.7025583057
H               145.5157492565       64.1452840537      121.5469569219
H               145.1375094511       65.5550295507      123.5545410957
H               145.3117028734       63.8445790226      123.9572112095
H               146.6400376304       64.9687747041      124.2678262947
H               146.1743355601       66.5150837228      121.5675731274
H               147.7904502770       66.1037810978      122.1453185820
H               147.2630057733       65.5789240559      120.5485142685
N               150.5426140224       58.6389750220      120.2703873485
C               150.2169216513       57.2348948717      120.1903174561
C               148.7101383980       57.0376585360      120.0729572282
O               147.9042387104       57.7940415074      120.5975762719
C               150.7130272795       56.4462277593      121.4223995378
C               150.1359499736       56.9851682755      122.7348847541
C               150.3217271786       55.9770261825      123.8581105721
O               151.1359641706       56.1286655575      124.7570819920
N               149.5129763187       54.9121359037      123.7821218129
H               149.8438631019       59.2464692989      120.6749668906
H               150.7167498725       56.8321570240      119.3022214595
H               150.4165532784       55.4051352741      121.2874151622
H               151.8021377315       56.4959105928      121.4490251632
H               150.6355541325       57.9127856333      123.0118171458
H               149.0695393149       57.1777293572      122.6119540703
H               148.8310490753       54.8057156554      123.0442408054
H               149.5968990739       54.1787434837      124.4670149175
N               148.3654852466       55.9176552370      119.4307328431
C               146.9982242745       55.4480968292      119.4273647591
C               146.5902373736       55.1615038907      120.8723434331
O               147.3817671419       54.7145843664      121.6931095653
C               146.8691783553       54.1790347411      118.5924101200
C               147.0905852432       54.4408687618      117.0674202292
O               146.4633232363       53.6799894984      116.2964045388
O               147.8509927506       55.3592748725      116.7324735075
H               149.0382430940       55.3791588278      118.9091743461
H               146.3393434915       56.2279632254      119.0330979724
H               147.6059769681       53.4413916670      118.9210437248
H               145.8778890472       53.7449803469      118.7246193989
N               145.3080276857       55.4148991549      121.1512635223
C               144.6990137778       55.0648509595      122.4153298650
C               143.1770834595       55.1670768422      122.2631196934
O               142.6778996172       55.8630967432      121.3867208027
C               145.1863501865       55.9786774765      123.5552747910
C               145.0521565560       55.3122576401      124.9183015406
O               144.4700625747       54.2480422650      125.0899603219
N               145.6310998370       55.9782819420      125.9206848633
H               144.7040169625       55.8479762896      120.4591581943
H               144.9723531726       54.0314686000      122.6628685396
H               146.2400895585       56.2010502615      123.3760610456
H               144.6276643812       56.9162165660      123.5467326876
H               145.5932395846       55.5874813251      126.8497477064
H               146.1243288903       56.8412464851      125.7672623388
N               142.4963105699       54.4803943618      123.1775217290
C               141.0519615107       54.4011695868      123.2513176240
C               140.6814667259       54.6738429416      124.7123068655
O               140.6377580101       53.7973096037      125.5665453206
C               140.5578677582       53.0183612443      122.7746917182
O               141.0287831274       52.7444013726      121.4790416290
C               139.0363327410       52.9490589253      122.8466760800
H               143.0246086133       53.9774263878      123.8904879449
H               140.6329222556       55.1728678996      122.5967737348
H               141.0009467875       52.2527391934      123.4244061886
H               140.5143516210       53.2825935091      120.8492772495
H               138.6941612135       51.9674708802      122.5327792188
H               138.6776654604       53.1350468493      123.8561331482
H               138.6085937122       53.6896904283      122.1703952370
N               140.5429911128       55.9733238414      124.9854358716
C               140.2450351257       56.4514375653      126.3225951120
C               138.8001682323       56.0657058835      126.6574323871
O               137.8719648769       56.4835341714      125.9721004138
C               140.3694457033       57.9750977076      126.3835253930
C               141.8031576027       58.5089310753      126.4605982274
C               142.6615597252       58.0254132823      125.2948326492
C               141.7563401552       60.0361452018      126.4778162662
H               140.3899520108       56.6195986540      124.2189022724
H               140.9322054216       55.9547413587      127.0148912278
H               139.8723618900       58.3787856927      125.4984620629
H               139.8151310149       58.3165271177      127.2594539130
H               142.2521948857       58.1539439211      127.3931531874
H               143.6340138110       58.5095257281      125.3288057930
H               142.8045204009       56.9483868296      125.3345680159
H               142.1888770540       58.2667342585      124.3440997239
H               142.7576257462       60.4421279028      126.5871418055
H               141.3342984947       60.3995513480      125.5431901702
H               141.1420138113       60.3903184745      127.3008395016
N               138.6266905044       55.3189072102      127.7520876097
C               137.3281691419       54.8209624019      128.1653519453
C               136.7958600828       55.7629087573      129.2464736769
O               137.1621340658       55.6781783741      130.4151342899
C               137.4981636317       53.3933374337      128.7211395387
O               138.4940517187       53.3746751135      129.7139287901
C               137.8846209501       52.4233593830      127.6107849563
H               139.4121353402       54.8961703754      128.2314038209
H               136.6514211910       54.8127583988      127.3060546559
H               136.5254616056       53.0846810569      129.1424364259
H               138.2450323714       54.0299934884      130.3941481233
H               138.0312904651       51.4317242445      128.0273076088
H               137.0943217720       52.3831172987      126.8644115825
H               138.8068260724       52.7405508088      127.1282237771
N               135.9741982504       56.7258190497      128.8242010216
C               135.5333526987       57.7919930715      129.7072262145
C               134.1888317130       57.4125537507      130.3337294779
O               133.1370155438       57.4310268823      129.7061917528
C               135.3851138349       59.1281152676      128.9616731251
C               136.6519564867       59.4947614086      128.1797417322
C               134.9722108658       60.2175793949      129.9516557949
C               137.8824249189       59.7725503940      129.0347803489
H               135.6070384649       56.7313516320      127.8801932267
H               136.2868158005       57.8709739790      130.4980756177
H               134.5840721825       58.9910026688      128.2290930382
H               136.8695012156       58.6879041555      127.4753357040
H               136.4316520061       60.3852028032      127.5888957252
H               134.9114138166       61.1768412010      129.4443021640
H               134.0008274166       59.9886211618      130.3835827963
H               135.6936889692       60.2989509751      130.7600615837
H               138.7146289476       60.0427831967      128.3893422542
H               137.7028273366       60.6004307622      129.7141227978
H               138.1698821488       58.8939049260      129.6080862493
N               130.8760060260       57.7642669068      131.9073874427
C               129.8582707159       58.7866166170      131.8688991743
C               128.6079635793       58.4472570421      132.6810353196
O               127.9006888572       59.3437504265      133.1163839340
C               129.4344890190       59.1688940145      130.4308075421
C               130.6369103815       59.7139030695      129.6684323261
C               128.7927698539       58.0069271283      129.6772488405
H               130.6454935209       56.8567415014      131.5233185743
H               130.2985537212       59.6771102896      132.3339897471
H               128.6875591744       59.9621893870      130.5421679116
H               130.3322201798       60.0266110913      128.6747399103
H               131.0658160414       60.5629305625      130.1953343005
H               131.4012978590       58.9456954215      129.5706962981
H               128.4636431002       58.3445445296      128.6982259055
H               129.4991081961       57.1929640580      129.5295613380
H               127.9305563533       57.6199057052      130.2151077446
N               130.3920035151       54.1016070409      129.2805444734
C               131.4693298854       54.9650195670      128.8735148600
C               131.1671040156       55.5247775384      127.4792082804
O               130.4285733893       54.9443480552      126.6992110076
C               132.8261268823       54.2014763423      128.7929616048
O               132.8816440033       53.4364161593      127.6091435394
C               133.0073427075       53.2759019050      129.9996215261
H               130.1995839573       53.3219727835      128.6600687221
H               131.5672775290       55.7764876145      129.5980656720
H               133.6194464034       54.9624532863      128.7901502894
H               133.6352322732       53.7320831659      127.0475131997
H               134.0382984827       52.9348210925      130.0421961285
H               132.7576653205       53.7669097179      130.9361208571
H               132.3645919904       52.4073709490      129.8761628116
N               131.7545451918       56.7022556390      127.2109207420
C               131.9704651970       57.1400227037      125.8476303602
C               133.4800969393       57.1070118823      125.6404106651
O               134.2416059998       57.5316886500      126.4990157970
C               131.3597425250       58.5346196647      125.6123093410
C               129.8353840713       58.3818679113      125.5905154697
C               131.9051970890       59.1460272051      124.3257275416
C               129.0868412229       59.7046174990      125.6741037331
H               132.4219446031       57.0723308783      127.8798506414
H               131.4930463311       56.4050404809      125.1908078180
H               131.6515770009       59.1686630299      126.4537211954
H               129.5534523903       57.8469833208      124.6824974180
H               129.5473335071       57.7516865072      126.4340702433
H               131.4450831205       60.1128994937      124.1438995765
H               132.9814461562       59.2897274963      124.3979919033
H               131.7205233433       58.4862171755      123.4806320999
H               128.0168697676       59.5183750171      125.6378794477
H               129.3162440751       60.2087038040      126.6084794923
H               129.3495976590       60.3667483209      124.8547217407
N               133.9012100938       56.5780885052      124.4867037736
C               135.3057386204       56.3570286584      124.2487710856
C               135.8003097016       57.3073808981      123.1636195736
O               135.0950760112       57.6515249777      122.2251873795
C               135.6010561720       54.9090546353      123.8822704961
C               135.2962628236       53.9173945004      125.0505767248
O               134.8987348380       54.4119303680      126.1303348320
O               135.4850591282       52.7152919890      124.8179370570
H               133.2514179610       56.2106219407      123.8109378892
H               135.8145221800       56.5869005146      125.1888617819
H               135.0280500462       54.5897639389      123.0080528335
H               136.6598984107       54.7946825024      123.6362711776
N               137.0320524732       57.7778550009      123.3962147406
C               137.7091678795       58.6827776900      122.4964004427
C               138.9507781447       57.9960411362      121.9481821836
O               139.7656231308       57.4761158182      122.7085609479
C               138.1577885561       59.9885143251      123.1982916473
C               137.1058561304       60.4482196931      124.2119879534
C               138.4502970082       61.0436390758      122.1342611144
C               137.5155909226       61.7221628653      124.9412208947
H               137.5639143957       57.3799774774      124.1624109640
H               137.0023079540       58.9003811201      121.6900294968
H               139.0851303991       59.7642385155      123.7380770008
H               136.1535927152       60.5862845663      123.6974063025
H               136.9599907122       59.6487823791      124.9412346961
H               138.9066290649       61.9209323884      122.5805210313
H               139.1339505296       60.6492004764      121.3848762224
H               137.5292598570       61.3359336133      121.6348556938
H               136.8160633789       61.9119879041      125.7486639332
H               138.5111943193       61.6027104575      125.3603467189
H               137.5142736872       62.5782216158      124.2735451161
N               139.1505837285       58.0981897038      120.6336225014
C               140.2820751689       57.4664713091      119.9885635826
C               141.2396111830       58.5540196083      119.4906779877
O               140.8668434182       59.4960062802      118.8029610620
C               139.8272222496       56.5578584101      118.8516637209
C               138.8577222692       55.5086297644      119.4831423407
O               137.6685544319       55.8544964671      119.6166034373
O               139.3653806635       54.4283049586      119.8443088867
H               138.3867335942       58.3624599199      120.0310458271
H               140.7888132850       56.8565522164      120.7425364005
H               139.3081724415       57.1319642437      118.0807376496
H               140.6914069877       56.0488613231      118.4275666847
N               142.4884319810       58.3903366421      119.9262203545
C               143.6055994456       59.2220031314      119.5312052758
C               144.5162344256       58.3672535050      118.6495689729
O               144.4923729582       57.1421174156      118.7334962570
C               144.3625835420       59.7147246980      120.7707711267
C               143.4535557674       60.4178797270      121.7883362023
C               144.2681735251       60.7583660016      123.0326144758
C               142.8331102159       61.6849879231      121.2058018619
H               142.7238107302       57.5302663352      120.4098493054
H               143.2003402117       60.0574163910      118.9541695141
H               144.8332625989       58.8475209696      121.2420638063
H               145.1552642091       60.3949891992      120.4559686701
H               142.6467863852       59.7274287757      122.0650179873
H               143.6300792010       61.1958718124      123.7948118679
H               144.7406765559       59.8658316837      123.4346409223
H               145.0430207660       61.4716340749      122.7665866552
H               142.2913282692       62.2265722186      121.9761503710
H               143.6081934247       62.3369260033      120.8101676925
H               142.1328080352       61.4431763247      120.4099561283
N               145.2856578853       59.0300336603      117.7840736254
C               146.1624123949       58.3858951881      116.8317180068
C               147.5019880117       59.1135279026      116.7602376538
O               147.5966097587       60.3165087408      116.9556424082
C               145.5572309403       58.4206613116      115.4150310688
C               144.3062220432       57.5563471830      115.2662993490
C               144.5811350968       56.1096938607      115.6664481018
C               143.6250861856       55.1158294627      115.0215413464
N               143.8833700495       53.7712945179      115.6003940621
H               145.3425785240       60.0386170960      117.8186214828
H               146.3245028070       57.3548286200      117.1476939388
H               145.3258251657       59.4590597951      115.1717064163
H               146.3196153664       58.0677733119      114.7184188571
H               143.4943689539       57.9615559130      115.8737999121
H               144.0027154568       57.5860456203      114.2212413285
H               145.5971320779       55.8513066006      115.3654183590
H               144.5143880418       56.0210076945      116.7517178685
H               142.5870181694       55.4021484798      115.1997164375
H               143.8072714461       55.0787461961      113.9475652074
H               143.5334629208       53.0198421959      114.9976952020
H               144.9357628912       53.6566623090      115.7630570843
H               143.4426852810       53.6933512263      116.5228561914
N               135.8022627484       61.4641365676      113.8595554348
C               135.5233465716       60.6873592012      115.0495619247
C               135.4199728969       61.6025205855      116.2615994087
O               134.5121719624       61.5028794959      117.0816691904
C               136.6233654663       59.6669775140      115.2941782163
C               136.7169196481       58.6072524332      114.1321167777
O               135.6625268636       58.3462390212      113.5302198716
O               137.8462873594       58.1269211776      113.9392403936
H               136.6756475306       61.2785558781      113.3907100591
H               134.5689188415       60.1595382203      114.9193503216
H               137.5963681353       60.1489545915      115.3939455992
H               136.4198105322       59.1094062604      116.2126063846
N               136.4114456215       62.4851973011      116.3705844351
C               136.5459967140       63.3671097510      117.5116551959
C               135.3341568926       64.2977799255      117.5968012348
O               134.7380188302       64.4914124356      118.6518394494
C               137.8443315140       64.1601020818      117.4046033526
C               139.1022118227       63.2836262384      117.4753670728
C               140.3281621057       64.1256269184      117.1319965709
C               139.2732239583       62.6431622608      118.8491162846
H               137.1253861871       62.5193595942      115.6563790028
H               136.5323278017       62.7613468105      118.4279898490
H               137.8260861398       64.6900805803      116.4502135791
H               137.8631220975       64.9105474598      118.1973836356
H               139.0164039633       62.4815746818      116.7319429857
H               141.2243253819       63.5131884765      117.1662536434
H               140.2314959771       64.5462014381      116.1345961454
H               140.4335433986       64.9434467493      117.8410061526
H               140.1237880500       61.9661886846      118.8490921458
H               139.4215497712       63.4071394054      119.6087064675
H               138.4006209402       62.0543165454      119.1199741066
N               132.3698691968       62.4470652532      118.7897333205
C               132.5038301273       62.2767998444      120.2214334557
C               131.9481325379       63.4976742744      120.9531720501
O               131.1347286105       63.3568463804      121.8605104218
C               133.9646203433       62.0153523110      120.6127403058
C               134.1582747682       62.1928073332      122.1148207360
C               134.3841612221       60.6095130674      120.1891021463
H               133.2007829073       62.3363017334      118.2222176685
H               131.8894134461       61.4243000190      120.5454003722
H               134.5819510691       62.7503876260      120.0865774717
H               135.1932947381       61.9907042527      122.3754660711
H               133.9244404984       63.2084263301      122.4190701346
H               133.5231152504       61.5054547822      122.6692312889
H               135.4457460160       60.4585131121      120.3776947174
H               133.8479459491       59.8509126111      120.7546228619
H               134.2186539355       60.4511810953      119.1269583960
N               128.3319188118       63.3773769898      120.9928005758
C               127.8461808990       62.2826911889      121.8044854205
C               127.8928882320       62.6534334407      123.2900158550
O               126.9788858356       62.3263694491      124.0427389051
C               128.6305186270       61.0004718807      121.5204102070
C               127.8369006769       59.7742696369      121.9763836458
C               128.6433490476       58.4797147792      121.8407825473
N               128.9587932533       58.1539675132      120.4609329983
C               128.1389643746       57.5737294532      119.5875079534
N               128.5726374920       57.3423771689      118.3485108558
N               126.8964111042       57.2396135579      119.9133625305
H               129.1858416677       63.2491665780      120.4592782868
H               126.7862008679       62.1240295967      121.5593508139
H               128.8156881064       60.9583854156      120.4459863489
H               129.5958417375       61.0568713389      122.0275529904
H               127.5578947431       59.8961880220      123.0227537703
H               126.9238220814       59.7113678128      121.3847482223
H               129.5902511640       58.5889124698      122.3700634775
H               128.0998479072       57.6492980232      122.2966994767
H               129.8700142427       58.4329523866      120.1306874805
H               129.5278981811       57.5248930905      118.0895758987
H               127.9907024864       56.8649144051      117.6793544606
H               126.5401389409       57.3890513072      120.8431484171
H               126.3112989247       56.7564993773      119.2502972629
N               128.9593276941       63.3366039349      123.6986556763
C               129.0067668283       63.8484261307      125.0523870353
C               127.8566937437       64.8317157232      125.2749227021
O               127.1704975482       64.7810593445      126.2885716660
C               130.3246276165       64.5587391699      125.3713118733
C               131.4714574499       63.6393008728      125.7007131545
C               132.6855557177       63.7761909981      125.0435863087
C               131.3674710145       62.6923171538      126.7136866273
C               133.7717654546       62.9886706560      125.3836569038
C               132.4468486323       61.8943510648      127.0481077243
C               133.6511739001       62.0380500566      126.3811147333
H               129.7152680033       63.5616341122      123.0612967870
H               128.8390543946       63.0134746899      125.7448861753
H               130.5835738740       65.1952028877      124.5241572252
H               130.1461816817       65.2007800601      126.2393502643
H               132.7832988310       64.5038560967      124.2515220152
H               130.4365594278       62.5775275507      127.2486981756
H               134.7115994653       63.1164427909      124.8672419203
H               132.3596339515       61.1597649294      127.8341242398
H               134.4865170374       61.3988166084      126.6280239397
N               124.8970005629       62.7889263777      125.9219265502
C               124.9593793620       62.2044401778      127.2513661445
C               124.5028772853       63.2324898320      128.2904476159
O               123.6051429211       62.9769368478      129.0855480112
C               126.3764775144       61.7329227614      127.5444612012
H               125.7305527261       62.7170979943      125.3398373479
H               124.2553442615       61.3640774625      127.3125630989
H               126.4190237058       61.2867180981      128.5342452199
H               126.6684345469       60.9917898531      126.8069266048
H               127.0623272388       62.5746589658      127.5057133102
H               137.8430795830       65.3742049012      128.5769215417
H               135.9332903956       66.2038571756      125.8294039342
H               140.1534955961       68.2444452111      125.5758313439
H               138.8518800644       68.4972088431      121.1186502317
H               143.5946961825       68.7095295507      120.8165040902
H               142.1666787795       68.1909640270      117.7235580682
H               149.8276686180       64.1601688206      129.1205321334
H               149.9052949424       63.3563735270      125.5216486566
H               148.8503933970       63.0670462430      123.4239611907
H               148.4186845985       63.0693622160      120.2351799113
H               151.2805307364       58.7479671667      120.7739741193
H               134.1449485433       57.1351744416      131.2934872527
H               131.5968138649       58.0403369806      131.4445468938
H               128.3692633773       57.4920130655      132.8557669958
H               130.5802988424       53.7451665960      130.0852152626
H               148.3365317165       58.6049902655      116.5482794585
H               135.1603377533       61.3155343396      113.2464896320
H               135.0068726403       64.7687386281      116.7776047268
H               131.7834973300       61.8442874252      118.4690669456
H               132.2474033808       64.4156613619      120.6929093562
H               127.7109678395       63.5945267428      120.3785808474
H               127.6553261816       65.5294683955      124.5874692031
H               124.2410465375       62.3926704931      125.4500096185
H               124.9387954845       64.1316404207      128.3292231546
