500
Properties=species:S:1:pos:R:3 pbc="F F F"
N      36.73700000      27.72500000      21.65900000 
C      36.21700000      29.34700000      20.94600000 
C      36.46800000      30.03000000      22.23100000 
O      36.77500000      31.29700000      21.74200000 
C      34.69700000      28.82800000      20.59900000 
C      33.96100000      30.39200000      20.29900000 
C      34.49700000      30.95300000      19.33300000 
C      32.34800000      30.16300000      20.22300000 
H      35.88400000      27.03700000      21.66200000 
H      36.60900000      29.39300000      20.33400000 
H      34.41800000      28.39700000      20.06500000 
H      34.01900000      28.53500000      21.72800000 
H      34.01900000      31.05200000      21.27300000 
H      34.01900000      31.95300000      18.90200000 
H      35.62500000      31.31600000      19.30100000 
H      34.49200000      30.37500000      18.28700000 
H      32.00600000      30.89100000      20.07400000 
H      32.34500000      29.42500000      19.36600000 
H      32.00200000      29.68200000      20.99200000 
N      39.18500000      33.30100000      21.17600000 
C      38.40600000      34.81700000      21.37700000 
C      39.20800000      35.63000000      22.08300000 
O      39.05200000      37.03600000      21.65600000 
C      37.08300000      34.73400000      21.82300000 
H      38.26600000      32.61100000      21.69600000 
H      38.22500000      35.08600000      20.23800000 
H      36.44900000      35.66000000      21.85400000 
H      36.26000000      33.98900000      21.28500000 
H      36.97300000      34.26900000      22.92300000 
N      39.94700000      35.59800000      22.78000000 
C      40.64900000      36.51500000      23.96700000 
C      42.19200000      37.20800000      22.58200000 
O      42.38600000      37.96000000      23.34100000 
C      41.41800000      35.53100000      24.59100000 
C      40.18200000      35.40700000      26.04600000 
C      41.28100000      34.62600000      27.28400000 
C      39.89700000      36.34600000      26.47400000 
H      40.10000000      34.12100000      23.36500000 
H      40.33500000      36.94600000      23.95100000 
H      41.90000000      34.86200000      24.77200000 
H      42.26700000      36.44300000      25.44800000 
H      39.86300000      34.83100000      25.79800000 
H      40.52400000      34.36300000      28.06100000 
H      41.61100000      33.71400000      26.89000000 
H      41.99800000      35.24600000      27.64200000 
H      39.11000000      36.42000000      27.63400000 
H      40.61200000      37.47200000      27.09900000 
H      39.17300000      37.16200000      25.92500000 
N      41.34200000      38.38100000      19.73300000 
C      40.56200000      39.22700000      18.97500000 
C      40.77900000      40.87700000      19.40900000 
O      40.88200000      41.08700000      20.21000000 
C      39.41200000      39.22000000      18.37900000 
C      39.12800000      37.59600000      17.63800000 
O      39.10500000      36.79700000      18.05800000 
N      39.12600000      38.21200000      16.34200000 
H      40.68700000      37.90400000      20.41100000 
H      41.25700000      39.30000000      17.96700000 
H      38.66300000      38.65400000      19.60800000 
H      38.72100000      39.68500000      18.16600000 
H      39.09400000      37.36600000      15.69200000 
H      39.14200000      38.76300000      15.97200000 
N      40.70600000      41.67400000      18.55600000 
C      40.69700000      43.05100000      18.60600000 
C      39.42600000      43.69100000      18.88800000 
O      38.61800000      44.16600000      17.53200000 
C      41.31400000      43.94900000      17.45300000 
C      43.15500000      43.59200000      17.80000000 
C      43.58100000      44.65700000      18.89500000 
O      43.26000000      45.58600000      18.98500000 
N      44.48400000      44.24800000      19.54800000 
H      40.66000000      41.53400000      17.58700000 
H      41.16200000      43.33700000      19.59500000 
H      41.22300000      43.58900000      16.72200000 
H      41.29300000      44.87100000      17.65000000 
H      43.22400000      42.74300000      17.82200000 
H      43.52100000      44.02300000      16.78100000 
H      44.82400000      43.17800000      19.44900000 
H      45.00100000      44.52000000      20.18600000 
N      38.56100000      43.69800000      20.18900000 
C      37.54900000      44.06600000      20.15500000 
C      37.08300000      45.69400000      20.15900000 
O      36.03400000      45.80400000      20.16800000 
C      36.74700000      43.29400000      21.64000000 
C      36.82500000      41.94200000      21.68600000 
C      35.80100000      41.42200000      20.69600000 
C      37.66000000      41.37700000      22.61300000 
C      35.82600000      39.96200000      20.79600000 
C      37.58700000      40.15000000      22.52600000 
C      36.45200000      39.34900000      21.49600000 
H      39.27200000      43.33100000      20.76600000 
H      36.64100000      43.67400000      19.44600000 
H      37.53200000      43.83000000      22.39800000 
H      35.76300000      43.97100000      21.84600000 
H      35.20700000      41.83200000      20.09700000 
H      38.14600000      41.52200000      23.00800000 
H      35.03500000      39.45800000      20.11600000 
H      38.13600000      39.15500000      23.17000000 
H      36.48500000      37.98600000      21.64500000 
N      37.80500000      46.35800000      19.77900000 
C      37.99200000      47.62400000      19.59400000 
C      37.14200000      47.93500000      18.25200000 
O      36.43100000      48.80400000      17.90500000 
C      39.26800000      48.51700000      19.12000000 
C      39.87200000      48.80900000      20.71700000 
C      39.62900000      49.53900000      21.71700000 
O      39.02400000      49.44200000      22.40300000 
N      39.85000000      50.84600000      21.04600000 
H      39.15400000      45.96100000      19.86900000 
H      37.31700000      48.19600000      20.12200000 
H      39.82300000      47.81400000      18.66100000 
H      39.14100000      49.36500000      18.89100000 
H      40.00200000      47.60800000      21.24800000 
H      41.14400000      48.84200000      20.36300000 
H      40.23500000      51.22700000      20.44900000 
H      39.43400000      51.71400000      21.87600000 
N      37.39800000      46.49300000      17.34200000 
C      36.72800000      46.76100000      16.13500000 
C      35.28000000      46.38400000      15.79600000 
O      35.03700000      45.36200000      16.79400000 
C      37.69000000      45.75300000      14.86800000 
O      37.57800000      44.63100000      15.31200000 
C      39.04800000      46.52600000      14.85800000 
H      37.70200000      46.18900000      17.50000000 
H      36.74400000      48.02300000      15.59000000 
H      37.15500000      46.25400000      13.95200000 
H      37.99500000      44.37100000      15.83300000 
H      39.54800000      45.92500000      14.08100000 
H      39.01100000      47.65100000      14.64500000 
H      39.60100000      46.29100000      15.85000000 
N      34.62000000      46.74000000      15.17700000 
C      33.11200000      46.43000000      14.65300000 
C      33.33600000      44.88700000      14.20200000 
O      32.19100000      44.21400000      14.71400000 
C      32.61500000      47.46500000      14.13100000 
C      30.68800000      46.71000000      13.73300000 
C      30.15000000      47.17700000      14.97600000 
O      29.80200000      48.26500000      15.54800000 
N      29.75600000      45.92100000      15.99400000 
H      34.74500000      47.65900000      14.48200000 
H      32.63900000      46.21000000      16.00300000 
H      32.36200000      48.04800000      14.31200000 
H      32.82300000      47.27700000      12.98500000 
H      30.42700000      47.63300000      13.19100000 
H      30.78300000      46.09700000      13.41500000 
H      30.06400000      45.03800000      15.52700000 
H      29.30700000      46.02800000      16.60400000 
N      33.91800000      44.20900000      13.35200000 
C      34.15900000      43.37800000      12.94800000 
C      34.20400000      41.99900000      13.98200000 
O      33.63100000      41.29100000      13.66100000 
C      35.18300000      43.26800000      11.76100000 
C      35.30300000      41.69600000      11.03100000 
C      36.66100000      42.06400000       9.91600000 
O      36.55900000      42.60200000       9.43000000 
N      37.16200000      40.88400000       9.85800000 
H      34.92900000      45.44900000      13.06000000 
H      33.25200000      43.08800000      12.33200000 
H      35.17700000      43.99600000      11.09300000 
H      36.35800000      43.43400000      12.32200000 
H      35.53200000      41.21500000      11.58200000 
H      34.48500000      41.73200000      10.46900000 
H      37.11600000      40.13900000      10.57400000 
H      37.84900000      40.80400000       9.34900000 
N      35.27400000      42.53800000      14.65500000 
C      35.11100000      41.17700000      16.14800000 
C      34.36100000      41.01800000      16.46600000 
O      33.87000000      39.96600000      17.09200000 
C      36.51500000      41.66600000      16.80200000 
H      35.73100000      43.05400000      14.97100000 
H      35.48500000      40.29500000      15.24900000 
H      36.73000000      40.99800000      17.37300000 
H      37.69700000      41.61400000      15.99300000 
H      36.59300000      42.62800000      17.22200000 
N      33.46100000      42.63000000      17.16800000 
C      32.36800000      42.16100000      18.06700000 
C      31.17200000      41.35500000      17.42500000 
O      30.60300000      40.39500000      17.87900000 
C      31.68900000      43.56200000      18.42800000 
C      32.80600000      44.48100000      19.15700000 
C      32.17100000      45.46000000      20.14300000 
N      31.67900000      46.49100000      19.37100000 
C      31.89600000      47.56700000      19.02000000 
N      33.89200000      47.35400000      19.19800000 
N      32.03600000      48.56900000      18.26600000 
H      33.74200000      43.03000000      16.90500000 
H      32.51900000      41.54500000      18.75700000 
H      31.59500000      44.09600000      17.74100000 
H      30.99000000      43.30300000      18.87800000 
H      33.19100000      43.32700000      20.28400000 
H      33.54200000      44.49300000      18.96600000 
H      31.24100000      44.90100000      20.76600000 
H      32.83600000      45.69500000      20.96400000 
H      30.71700000      46.52500000      19.34900000 
H      34.20100000      46.79900000      19.52800000 
H      34.19800000      48.42000000      18.67700000 
H      30.59200000      48.38800000      18.31900000 
H      32.10300000      49.15900000      18.00200000 
N      30.97500000      41.75800000      15.64400000 
C      30.09900000      41.13300000      15.35000000 
C      30.31800000      39.63300000      15.05200000 
O      29.21900000      38.47800000      15.22200000 
C      29.35300000      41.76100000      13.67900000 
O      29.07600000      42.96900000      14.45200000 
C      28.68600000      41.09000000      13.04300000 
H      31.41900000      42.37700000      15.53400000 
H      28.96700000      40.99600000      15.81300000 
H      30.70800000      41.87200000      13.31800000 
H      29.18900000      43.73900000      13.51300000 
H      28.48300000      41.61300000      12.14400000 
H      29.10800000      40.03600000      12.59300000 
H      27.71100000      40.84500000      13.61100000 
N      31.50500000      39.33900000      14.48900000 
C      32.06000000      37.71300000      14.41500000 
C      31.91400000      37.02300000      15.52700000 
O      31.09000000      35.56800000      15.30400000 
C      33.16700000      37.77900000      13.59700000 
C      33.67000000      36.31100000      13.57300000 
C      33.19800000      38.58000000      12.28800000 
H      32.25200000      39.90000000      14.37600000 
H      30.94700000      37.29100000      13.48100000 
H      33.91200000      38.38100000      14.06900000 
H      34.83500000      36.34700000      12.98500000 
H      34.10400000      35.88100000      14.58800000 
H      33.23000000      35.62200000      13.15400000 
H      34.03300000      38.29800000      11.64300000 
H      32.36300000      37.53600000      11.46900000 
H      32.66000000      39.14800000      12.05900000 
N      32.41900000      37.65500000      16.87300000 
C      32.43300000      36.62500000      17.79500000 
C      30.99500000      36.13600000      18.43400000 
O      30.66300000      35.58200000      18.99500000 
C      33.51400000      36.92500000      18.74400000 
C      33.67600000      36.30900000      20.13600000 
C      34.71900000      37.05000000      18.09100000 
H      32.68100000      38.26000000      16.64000000 
H      32.77200000      35.63100000      17.48800000 
H      33.31500000      38.23700000      19.12000000 
H      34.17700000      36.54100000      20.66300000 
H      32.61700000      36.23800000      20.63800000 
H      33.73900000      35.14500000      19.82900000 
H      35.75900000      37.32700000      18.86700000 
H      35.16200000      35.92700000      17.79300000 
H      34.99300000      37.72200000      17.18600000 
N      30.09800000      37.30600000      18.45100000 
C      28.75700000      37.40500000      19.02300000 
C      28.17600000      35.90500000      17.72900000 
O      27.32000000      35.28800000      18.76500000 
C      27.94900000      38.73600000      18.94800000 
C      26.62600000      38.16200000      19.33000000 
C      25.79500000      39.83300000      19.14600000 
O      25.67900000      40.11100000      18.03400000 
N      25.00400000      40.23700000      20.25100000 
H      30.33800000      38.55900000      18.00700000 
H      28.82500000      36.90100000      19.88200000 
H      28.45300000      39.28700000      19.14200000 
H      27.81300000      38.83100000      17.62700000 
H      26.14600000      37.78200000      19.11200000 
H      26.77000000      38.26300000      20.46900000 
H      25.25900000      39.83800000      21.22300000 
H      24.55100000      40.91900000      20.06700000 
N      28.22000000      36.20800000      16.87500000 
C      27.62000000      35.03300000      15.91700000 
C      28.07200000      33.75400000      16.24900000 
O      27.26200000      32.78000000      16.33500000 
C      27.85600000      35.40700000      14.52700000 
C      26.90700000      36.85900000      14.25400000 
C      27.31000000      37.12900000      12.29400000 
N      26.06700000      38.17500000      12.17900000 
C      26.45700000      38.64400000      11.01200000 
N      27.24800000      38.59500000      10.02200000 
N      25.21800000      39.92000000      10.65300000 
H      28.74100000      36.89300000      16.19100000 
H      26.60700000      35.04400000      16.13400000 
H      28.78200000      35.67000000      14.16900000 
H      27.48500000      34.40000000      13.77300000 
H      25.73700000      36.23800000      14.05100000 
H      26.96800000      37.25700000      14.41600000 
H      28.05100000      37.34500000      12.50500000 
H      27.00900000      36.02200000      11.87200000 
H      25.46600000      38.17700000      12.69700000 
H      27.90600000      37.83600000      10.28600000 
H      27.33000000      39.01300000       9.46300000 
H      24.71600000      39.84300000      11.43800000 
H      25.48300000      40.18100000       9.97500000 
N      29.55900000      33.73200000      16.30700000 
C      30.06300000      32.24300000      16.61200000 
C      29.74700000      31.84400000      17.87600000 
O      29.15400000      30.30300000      17.87500000 
C      31.77300000      32.47500000      16.78200000 
C      32.18500000      32.63500000      15.46300000 
C      34.16500000      32.71400000      15.44600000 
O      34.21900000      33.67200000      16.48700000 
N      34.51800000      32.33400000      14.90300000 
H      30.26000000      34.38600000      16.31400000 
H      29.89100000      31.72400000      15.93900000 
H      31.86700000      33.19600000      17.35300000 
H      32.02600000      31.60500000      17.16700000 
H      32.10300000      31.77600000      14.78700000 
H      31.93000000      33.39000000      14.99200000 
H      34.18600000      31.38700000      13.87300000 
H      35.61900000      32.29900000      14.74300000 
N      29.30900000      32.51800000      19.07100000 
C      28.80200000      31.85000000      20.49700000 
C      27.39200000      31.20500000      20.06700000 
O      27.20100000      30.67300000      20.36600000 
C      29.00700000      33.03500000      21.36900000 
C      30.28400000      32.67400000      22.41700000 
C      30.37500000      32.11800000      22.86800000 
C      31.16800000      34.23900000      21.91700000 
C      31.78200000      31.87500000      23.97400000 
C      32.50300000      33.55200000      22.93100000 
C      32.54200000      33.08200000      23.40000000 
H      29.74200000      33.70100000      19.18000000 
H      29.33300000      31.07600000      20.50400000 
H      28.64200000      34.09300000      21.06600000 
H      28.05200000      32.70100000      22.09700000 
H      29.56800000      31.17200000      23.30000000 
H      31.00500000      34.49700000      21.48200000 
H      31.82600000      30.93500000      24.62500000 
H      33.04200000      34.63600000      22.58600000 
H      33.56100000      32.78800000      24.17100000 
N      28.29800000      42.29200000      23.66300000 
C      28.76700000      42.55900000      22.35700000 
C      27.87000000      43.70100000      21.62300000 
O      28.44700000      44.14600000      20.36700000 
C      28.65100000      41.40800000      21.32700000 
C      29.62200000      40.43900000      21.58500000 
C      30.85100000      40.67900000      21.42400000 
C      29.29300000      38.76100000      22.46600000 
C      32.28600000      39.63800000      21.87000000 
C      30.37100000      38.48000000      22.50000000 
C      31.34300000      38.05000000      22.31200000 
H      27.77500000      41.50400000      23.88600000 
H      29.57900000      43.12100000      22.24100000 
H      27.58200000      40.90300000      21.47300000 
H      28.77600000      41.59000000      20.55900000 
H      31.36500000      41.40000000      21.16400000 
H      28.17400000      38.88900000      22.45500000 
H      32.88000000      39.70000000      21.62500000 
H      29.82600000      37.01300000      22.95300000 
H      32.19700000      37.70200000      22.52700000 
N      26.87900000      46.93000000      20.98300000 
C      27.41900000      48.08000000      21.05900000 
C      28.09700000      48.21900000      19.60300000 
O      28.61800000      48.13100000      19.24200000 
C      28.50500000      48.34900000      22.27500000 
O      27.86000000      48.02600000      23.01800000 
C      29.16800000      49.78300000      21.91200000 
H      27.71800000      46.03600000      20.52500000 
H      26.55200000      48.73100000      21.36200000 
H      29.34500000      47.57400000      21.81000000 
H      28.74700000      47.94800000      24.14800000 
H      29.77800000      49.83900000      22.83700000 
H      29.61000000      49.94900000      21.15900000 
H      28.36700000      50.47900000      22.21600000 
N      26.66400000      49.95900000      19.01000000 
C      27.40500000      49.77500000      17.91600000 
C      27.69600000      51.70600000      17.66800000 
O      27.51900000      52.21200000      18.89100000 
C      25.94800000      50.25000000      17.15200000 
C      25.25100000      48.38600000      16.73300000 
C      26.20500000      47.62000000      16.02500000 
N      26.17200000      47.87800000      14.53900000 
C      26.47700000      46.78700000      13.48700000 
N      26.80300000      46.02200000      13.64200000 
N      26.46100000      47.45500000      12.62800000 
H      26.51600000      49.84100000      19.58300000 
H      28.13500000      49.37900000      17.22100000 
H      25.40700000      50.50900000      17.39500000 
H      26.21200000      50.35800000      15.87900000 
H      25.31100000      48.22600000      17.81900000 
H      24.58100000      48.69100000      16.42500000 
H      27.07400000      47.46600000      16.38300000 
H      25.55500000      46.66700000      16.10100000 
H      25.89400000      48.89800000      14.34800000 
H      26.95000000      45.44500000      14.85000000 
H      27.04500000      45.23100000      13.14100000 
H      26.11700000      48.47100000      12.03700000 
H      26.65700000      46.88900000      11.53400000 
N      33.16700000      52.12300000      23.51600000 
C      33.94800000      51.36000000      22.82400000 
C      35.09700000      50.41200000      24.15100000 
O      35.07900000      49.61200000      24.01300000 
C      34.77800000      51.72500000      21.82600000 
C      35.83400000      50.59300000      21.12900000 
C      33.59600000      52.08200000      20.78300000 
H      33.47000000      53.45400000      23.06600000 
H      33.37200000      50.35100000      22.69400000 
H      35.29900000      52.68000000      21.88400000 
H      36.22700000      51.05200000      20.31700000 
H      36.64800000      50.50800000      21.92400000 
H      35.33200000      49.78500000      21.03200000 
H      34.37000000      52.46700000      19.61700000 
H      33.18100000      51.06100000      20.21300000 
H      33.03700000      52.74900000      20.80100000 
N      32.76100000      48.67700000      26.32200000 
C      32.15600000      47.23300000      25.78500000 
C      33.55600000      46.15000000      25.74700000 
O      33.23000000      45.21000000      26.12300000 
C      31.81100000      47.55700000      24.58300000 
H      32.67900000      49.30800000      25.83200000 
H      31.65300000      46.86500000      26.34500000 
H      31.52600000      46.50600000      23.90800000 
H      31.05900000      48.17200000      24.34300000 
H      32.68000000      48.04300000      23.66300000 
N      34.98000000      46.85600000      25.39800000 
C      35.73800000      45.63800000      25.50400000 
C      36.31600000      45.25200000      26.71500000 
O      36.34100000      43.95500000      26.71100000 
C      37.11900000      46.54600000      24.77000000 
O      36.71900000      46.96900000      23.38600000 
C      38.17800000      45.99900000      24.67600000 
H      34.83800000      47.76900000      25.25600000 
H      35.60100000      45.13900000      24.69400000 
H      37.32500000      47.67800000      25.41900000 
H      36.40800000      47.93100000      23.32200000 
H      39.15100000      46.46300000      24.21900000 
H      38.85100000      45.74900000      25.79000000 
H      38.25600000      45.06400000      24.25400000 
N      33.51500000      42.64500000      27.40500000 
C      33.65600000      41.37300000      26.81300000 
C      34.41600000      40.43400000      27.49500000 
O      34.38500000      39.53400000      27.54200000 
C      33.75100000      41.83600000      25.37500000 
C      32.49100000      42.35400000      24.78400000 
C      34.28400000      40.71300000      24.35600000 
C      32.84300000      42.99400000      23.27800000 
H      33.54000000      43.57600000      27.11400000 
H      32.50800000      40.87200000      26.94000000 
H      34.60300000      42.49900000      25.22200000 
H      31.81100000      41.59900000      24.49900000 
H      32.05600000      43.10500000      25.32500000 
H      34.32700000      40.67900000      23.75200000 
H      35.22600000      40.03900000      24.91200000 
H      33.47500000      39.60500000      24.73000000 
H      31.96200000      43.58700000      23.01300000 
H      33.63500000      44.00100000      23.58600000 
H      33.22300000      42.49500000      22.71300000 
N      35.91500000      41.30700000      27.62400000 
C      36.98000000      40.54000000      28.02800000 
C      36.54600000      39.37000000      29.53100000 
O      36.97700000      38.77700000      29.93300000 
C      38.39800000      40.77900000      28.22300000 
C      38.59300000      41.34900000      26.69900000 
C      40.25700000      41.94200000      26.67100000 
N      40.56400000      41.84800000      25.50500000 
C      41.32400000      40.84600000      24.41700000 
N      41.54400000      39.75700000      25.42300000 
N      41.57600000      40.70800000      23.67800000 
H      35.94800000      41.96500000      27.58600000 
H      36.94400000      39.46500000      27.61300000 
H      38.08900000      42.20600000      28.60600000 
H      38.81500000      40.65700000      28.58100000 
H      38.90700000      40.07600000      26.26300000 
H      37.97700000      41.61500000      26.03200000 
H      39.87200000      42.97000000      26.79300000 
H      40.72300000      41.69100000      27.16100000 
H      40.32400000      42.65800000      24.42900000 
H      41.56000000      39.87500000      26.49100000 
H      42.08900000      39.09100000      24.97000000 
H      41.01300000      41.50100000      22.72700000 
H      42.05100000      39.77300000      22.89500000 
N      34.11700000      36.82300000      29.04800000 
C      34.70600000      35.83100000      28.83000000 
C      35.37800000      35.24200000      29.63900000 
O      35.48100000      33.75100000      29.97400000 
C      35.56400000      35.96800000      27.42300000 
C      34.68500000      36.43100000      26.21200000 
C      36.38800000      34.69700000      27.08800000 
C      35.60400000      36.67200000      25.03800000 
H      34.30200000      37.70100000      28.73500000 
H      33.84200000      34.96800000      28.40400000 
H      36.16300000      36.83600000      27.52400000 
H      34.09000000      35.46200000      25.96700000 
H      33.95400000      37.05400000      26.48900000 
H      37.01300000      34.93500000      26.18400000 
H      37.19100000      34.58700000      27.81800000 
H      35.80200000      33.89600000      26.91100000 
H      34.62700000      37.16300000      24.12300000 
H      35.98100000      37.67200000      25.28300000 
H      35.89900000      36.17800000      24.61600000 
H      37.40107390      27.37701380      21.16109293 
H      36.38251898      29.52574925      23.09031611 
H      39.33594395      33.15447578      20.30093053 
H      42.32975779      36.73711167      21.71062925 
H      41.74433854      37.78134630      19.19584161 
H      26.84255595      31.63598552      19.35120484 
H      28.99738286      42.22437521      24.22539711 
H      27.02137961      44.01870071      22.04597717 
H      26.60595468      46.67167823      21.80075065 
H      27.91926095      52.06570844      16.76203952 
H      32.30984499      51.90162393      23.35389534 
H      35.58715525      50.93253428      24.85013653 
H      32.34976780      48.90867902      27.08829819 
H      36.61083502      45.94589253      27.37195165 
H      32.70009695      42.71273283      27.78095915 
H      35.64734608      39.42720209      29.96591270 
H      33.26989589      36.73986604      28.75559039 
H      36.00332720      35.74807547      30.23301473 
