 459 
 
N               165.1002462986       73.2757293619       94.9463073314
C               165.6711730914       73.1858520084       96.2731967269
C               164.8674820925       74.0485470674       97.2366131763
O               164.5784256113       73.6606502314       98.3655109171
C               167.1223326706       73.6444211999       96.2743551769
C               168.0579192207       72.7258157416       95.4130283692
O               167.7979298618       71.5041848986       95.3966477107
O               168.9995196044       73.2949269642       94.8427961656
H               165.7438539077       73.4115696116       94.1736041463
H               165.6201473654       72.1483186317       96.6364440519
H               167.2002912793       74.6616583792       95.8911569960
H               167.5134827309       73.6183657728       97.2942668721
N               163.5500589387       67.4396572343       94.4782939962
C               164.8453569407       67.8880966980       94.0247538864
C               165.3738661450       66.9656267606       92.9163830776
O               164.8563650604       65.8938383640       92.6587119061
C               165.8244424645       67.9119282336       95.2016437877
C               165.4121223903       68.9717081266       96.2251107877
C               166.3129750504       68.8935492461       97.4385489323
O               166.1831106320       68.0134488246       98.2895457584
N               167.2278648350       69.8552198074       97.5302215142
H               163.5539612879       66.6489839009       95.1172396476
H               164.7239478081       68.8973918347       93.6115200739
H               165.8200258778       66.9281860165       95.6745646022
H               166.8371913534       68.1203710766       94.8513526423
H               165.4854146256       69.9634141820       95.7801863869
H               164.3822307791       68.7863444914       96.5368652133
H               167.4146105859       70.4950628822       96.7494523322
H               167.8971306396       69.8288123716       98.2842332034
N               169.4999917737       65.8851783204       91.5357070260
C               170.8875681217       65.8932359407       91.9641708423
C               171.7269653628       66.8331135575       91.1006282590
O               171.6309963069       66.8390862418       89.8767974994
C               171.4416175504       64.4686648108       91.8660294450
C               170.7915522797       63.5841362965       92.9309003660
C               170.8315103698       62.0943329057       92.5932745398
C               170.0356708021       61.3577482801       93.6628600245
N               169.9182485858       59.9007467435       93.4007803678
H               169.1536370737       65.0467042494       91.0925919046
H               170.9138049444       66.2440363624       93.0004514710
H               171.2323885556       64.0977794876       90.8602611702
H               172.5250801465       64.5016072317       91.9858902030
H               171.2768013616       63.7615617753       93.8919699757
H               169.7532299941       63.8974491498       93.0524882833
H               170.3861055635       61.9411616124       91.6096189702
H               171.8661217018       61.7567337032       92.5672045599
H               170.5046130721       61.5120773502       94.6347651035
H               169.0290098085       61.7739284742       93.7109534650
H               169.2168661382       59.5381171340       94.0793743635
H               169.5827258927       59.7378145176       92.4416226355
H               170.8246037476       59.4312562801       93.5235025645
N               172.5906834949       67.6113705817       91.7630686855
C               173.6701847229       68.2664018655       91.0588240476
C               174.6296544664       67.1999166041       90.5113383978
O               174.8167313853       66.1391066088       91.0911971961
C               174.4823707155       69.1652142525       92.0041978967
C               173.8736602857       70.5291834912       92.1666482098
C               172.9252216779       70.7870817248       93.1501820096
C               174.2545102607       71.5656385258       91.3250753437
C               172.3760056002       72.0467780030       93.2973811490
C               173.7334731563       72.8358649643       91.4774936728
C               172.7883264394       73.0859517003       92.4661668584
O               172.2674344237       74.3250035926       92.6566254426
H               172.6671347753       67.5688400131       92.7742961491
H               173.2681070476       68.8538130096       90.2248006981
H               174.5471556488       68.6667578444       92.9727836578
H               175.4888957301       69.2640295858       91.5894603909
H               172.6183376919       69.9874765923       93.8084768977
H               174.9763973642       71.3854985258       90.5423106621
H               171.6082492049       72.2493686513       94.0301529481
H               174.0613892479       73.6350274121       90.8256729506
H               172.6084717389       74.9222079881       91.9757704012
N               178.4338459892       66.3628095879       90.2682051029
C               179.4583349342       66.6074383708       91.2599772005
C               180.8357261900       66.4918832568       90.6007905690
O               181.0588620807       65.7047319657       89.6940753450
C               179.3155598708       65.6024389538       92.4223767098
C               180.3890244636       65.8355049700       93.4812344726
C               177.9295614916       65.7254709379       93.0532293351
H               178.3610505738       65.4154051484       89.9295129726
H               179.3163913706       67.6288196420       91.6270951793
H               179.4408576200       64.5947775918       92.0116708079
H               180.2247088850       65.1709999791       94.3255165004
H               181.3862735502       65.6381368238       93.0939853437
H               180.3507717916       66.8605299882       93.8434067753
H               177.8138309218       64.9847761658       93.8397583326
H               177.8143706235       66.7114281610       93.4959599306
H               177.1338020188       65.5800988300       92.3262926295
N               185.1790698848       71.3929618612       96.1265077879
C               184.0859110709       70.8144296858       95.3731969966
C               183.5105120472       71.8297326018       94.3762048677
O               183.6157571343       73.0356211003       94.5603175734
C               182.9596597731       70.3841077431       96.3162613040
C               183.3975583214       69.3528029048       97.3502782926
S               184.1342325123       67.8428431996       96.6243700224
C               182.6944631907       67.2040553106       95.7267608105
H               184.9862159681       71.7536116782       97.0535524834
H               184.4668483261       69.9441732650       94.8266975514
H               182.5967248858       71.2686951046       96.8449245423
H               182.1456563898       69.9803432997       95.7122849829
H               184.1665679340       69.7542912994       98.0091585796
H               182.5433953607       69.0316916919       97.9457425832
H               182.8895596786       66.1543790329       95.5298928120
H               181.8102493874       67.3068916611       96.3470368934
H               182.5864256980       67.7354321389       94.7856614797
N               179.7156165734       72.0087434819       91.9104212555
C               178.4422189094       71.4090870449       91.5734554037
C               177.8809761762       72.1074716591       90.3330742310
O               177.8650601419       73.3320147341       90.2505695924
C               177.4712276848       71.5817644327       92.7564676646
C               178.0549095638       70.9866026331       94.0049718039
C               178.7743184801       71.7709875131       94.8964168759
C               177.9178371385       69.6297175100       94.2728919983
C               179.3233304892       71.2178417999       96.0379447278
C               178.4695765773       69.0637781813       95.4058054814
C               179.1740922409       69.8623421099       96.3028588371
O               179.6965488318       69.2882192391       97.4206715815
H               179.6966491713       72.9827355360       92.2005071719
H               178.6210985021       70.3507667258       91.3671064231
H               177.2951628017       72.6488720754       92.8936356917
H               176.5243043740       71.1049255062       92.5085975299
H               178.9114360813       72.8248615220       94.7033079781
H               177.3598636701       69.0150755124       93.5822156413
H               179.8670422488       71.8490632029       96.7254226965
H               178.3536682514       68.0122680735       95.6200472363
H               180.0549332095       69.9753103806       97.9989721498
N               178.6913381201       76.0010846653       90.7647536806
C               178.9188643667       76.6381902762       92.0432335988
C               179.9483479984       75.8479270942       92.8495826532
O               179.8857433650       74.6274906783       92.9988059668
C               177.6033739944       76.8220486068       92.8379798339
C               176.8961910177       75.4815425352       93.0634567128
C               176.7119371818       77.8217382094       92.1029234777
C               175.7148108500       75.5781795861       94.0224756960
H               178.3871902405       75.0312877919       90.7636666909
H               179.3452064294       77.6235830703       91.8238370068
H               177.8892819470       77.2349180195       93.8121573218
H               176.5557715559       75.0817465018       92.1051711708
H               177.6259645983       74.7836046635       93.4757758598
H               175.8564910355       78.0754818271       92.7203103103
H               177.2787450819       78.7234573578       91.8836251116
H               176.3676591235       77.3839857702       91.1674140665
H               175.2951312878       74.5885615097       94.1873477876
H               176.0378093637       75.9866193925       94.9765892095
H               174.9322387629       76.2096385419       93.6147891831
N               186.4549243089       69.0217645624      100.9054743565
C               186.0873579120       67.6632998084      101.1957169814
C               187.3590935993       66.8270905833      101.2279217215
O               188.3349843934       67.1039524318      100.5387222561
C               185.1304525458       67.0753737073      100.1528181530
H               187.2096850069       69.1543273528      100.2417808707
H               185.5916210753       67.6485676319      102.1700377704
H               184.8977731984       66.0481043309      100.4206393696
H               184.2106466407       67.6538011789      100.1444161470
H               185.5700179624       67.1001351617       99.1591846806
N               183.2433173897       61.5843899489       99.1959900883
C               183.6124564725       62.8948787694       99.6857221636
C               183.0020081524       63.1049503518      101.0747049038
O               181.8278669066       62.8246441308      101.2921768836
C               183.0454775781       63.9990974103       98.7661567964
C               183.4266770294       63.8088481109       97.3256468702
C               182.5947731760       63.0985353797       96.4668754241
C               184.6024536383       64.3410750180       96.8160991311
C               182.9065091444       62.9457136052       95.1323712521
C               184.9207670679       64.2028082747       95.4774409991
C               184.0697426887       63.5154693948       94.6167581633
O               184.3207972697       63.3735868450       93.2901655519
H               182.2560387356       61.3697987622       99.2053954904
H               184.7031149536       62.9311413786       99.7220169161
H               181.9572130312       63.9702315080       98.8562311867
H               183.4105390730       64.9618770829       99.1245317712
H               181.6755049524       62.6664355700       96.8353104793
H               185.2681640871       64.8889826032       97.4652831392
H               182.2678004356       62.3760808116       94.4758418715
H               185.8303531952       64.6340808440       95.0867655040
H               185.0041629193       64.0112796313       92.9769858788
N               183.8192193736       63.6537012804      101.9699394945
C               183.4300176534       63.9801959348      103.3277341752
C               183.6147970987       65.4830910122      103.5467776339
O               184.6877834279       66.0150846380      103.2805579069
C               184.3139887899       63.2300616621      104.3396314629
C               184.0749550697       61.7495022078      104.2957358302
C               184.7348610904       60.9438622717      103.3733146332
C               183.1733214051       61.1631988718      105.1743859226
C               184.5021367028       59.5817382306      103.3286116075
C               182.9480379304       59.8001171344      105.1509666949
C               183.6148706818       59.0017577738      104.2293030471
O               183.3899781211       57.6559876254      104.1601406425
H               184.8094987918       63.7402686265      101.7452308172
H               182.3825253604       63.7115737188      103.4672134738
H               185.3575440239       63.4543749312      104.1105455181
H               184.0728326150       63.6204243139      105.3275796923
H               185.4415993322       61.3832326398      102.6851757134
H               182.6404790428       61.7787705931      105.8838907516
H               185.0109137390       58.9571640252      102.6110670513
H               182.2569812898       59.3597286855      105.8537673712
H               182.9433859543       57.3566381538      104.9694446595
N               182.5459078105       66.1708104839      103.9724459453
C               182.7096742587       67.5822812192      104.2676202183
C               183.8450692511       67.7657536538      105.2838311032
O               183.9503806108       67.0329018544      106.2624390579
C               181.4024549886       68.1667667592      104.8135185161
O               181.0226886081       67.4737550684      105.9731295765
H               181.8287540993       65.6771930476      104.4933148878
H               182.9823115538       68.1066574052      103.3444093171
H               181.5610849555       69.2345358213      105.0198116907
H               180.6244658360       68.0743473645      104.0407042028
H               180.2166756338       67.8991758486      106.3651761116
N               180.6210985632       63.0237305478      108.2071693154
C               179.6389464145       63.6441003304      107.3357989311
C               180.0800496696       63.4739947204      105.8721115427
O               181.0443424230       64.0709003561      105.4115729427
C               179.5140795589       65.1364197220      107.6316134414
C               179.1359272338       65.4284906776      109.0727425375
O               178.9813967858       64.5531398567      109.9124189910
N               178.9938320762       66.7307491015      109.3487292835
H               181.3239026165       63.6399293323      108.5952733289
H               178.6854283485       63.1298225463      107.5027024566
H               180.4635280663       65.6282227795      107.4070747238
H               178.7616765137       65.5820039014      106.9802311584
H               178.7446481507       66.9993554898      110.2912994032
H               179.0108489313       67.4385766602      108.6186329350
N               179.3698926767       62.5854666458      105.1746470676
C               179.5797816816       62.3521896339      103.7575782241
C               178.6933611564       63.3098553151      102.9637068938
O               177.6812432768       63.7974437866      103.4594989411
C               179.2414217781       60.8855707839      103.4605885838
C               179.5953553425       60.4583074999      102.0375973822
C               179.1885298671       59.0100599913      101.7501402337
C               179.9520871017       57.9601111778      102.5483080019
N               181.3667465642       57.9118489118      102.1123973050
H               178.4852197400       62.2561232309      105.5500810090
H               180.6287003434       62.5521375273      103.5214828643
H               179.7920909326       60.2948835188      104.1931501667
H               178.1756341546       60.7352647667      103.6343204476
H               179.0538789943       61.0871750192      101.3314178437
H               180.6587191950       60.6290164824      101.8593478651
H               178.1272538670       58.9073666282      101.9726300282
H               179.3252616735       58.8067791052      100.6874225409
H               179.9091800894       58.1876080961      103.6135358165
H               179.5081363594       56.9820935106      102.3686018677
H               181.4391977046       57.5935860332      101.0717281231
H               181.7814191347       58.8452208983      102.1971180815
H               181.9321939477       57.2681191651      102.6840380981
N               179.0604154979       63.5778787218      101.7096048344
C               178.2194149917       64.3936170618      100.8527111387
C               177.3687601640       63.4815256092       99.9556950864
O               177.8235608007       62.4723598138       99.4391127120
C               179.0564504998       65.3288460820       99.9791474498
C               179.8046647497       66.4069854763      100.7738453369
C               180.7917952566       67.1299104931       99.8591098344
C               178.8453050467       67.4231557500      101.3909016655
H               179.9487084647       63.2425188976      101.3491096107
H               177.5438594119       64.9626189397      101.4978354338
H               179.7786446199       64.7203496953       99.4310627994
H               178.3968424402       65.8013193517       99.2477952771
H               180.3623757156       65.9224460163      101.5844057359
H               181.3168991733       67.9000463911      100.4194961575
H               181.5236762738       66.4362840129       99.4551454181
H               180.2574601733       67.5965294577       99.0349579464
H               179.3987779536       68.2000512936      101.9149050902
H               178.2385775353       67.9019304739      100.6248235796
H               178.1705178572       66.9634831533      102.1103965263
N               176.0983434912       63.8708056924       99.7959890657
C               175.1949134445       63.1418151711       98.9286963340
C               173.7904483176       63.7199702495       99.0079404144
O               173.5836863655       64.9108729937       99.2100453962
H               175.7248920336       64.6655255424      100.2990220306
H               175.5567640963       63.2371976939       97.8956876192
H               175.2163059819       62.0831923976       99.2054667253
N               172.7913764540       62.8369029282       98.8535346262
C               171.4006209572       63.2152183218       98.9717666048
C               170.7480641344       63.5894339592       97.6313237182
O               171.3319931601       63.5050258817       96.5651832698
H               172.9955073089       61.8919048485       98.5637197004
H               170.8444503476       62.3908528379       99.4231555403
H               171.3473720604       64.0863779189       99.6327497129
N               169.4807384942       64.0176871142       97.7629290921
C               168.6300941085       64.3798696706       96.6484196628
C               169.2066774918       65.5223775198       95.8070147276
O               168.9446109743       65.6071530398       94.6177960973
C               167.2493167094       64.7485598895       97.1788745132
H               169.0307264893       63.9609118693       98.6648437641
H               168.5461735050       63.5267542714       95.9607515394
H               166.5357716102       64.8428197168       96.3650864502
H               166.9096528382       63.9673135115       97.8550322186
H               167.2846475046       65.6944743616       97.7165836528
N               170.0053334773       66.3885598473       96.4530858608
C               170.7131882704       67.4411956288       95.7653543571
C               172.1917637216       67.1116716393       95.5305693132
O               172.8110853282       67.6739365744       94.6329011198
C               170.5987235697       68.7932063295       96.4775459897
C               171.3618380297       68.8486290129       97.8216762821
O               171.5969762767       69.9770108071       98.2940467903
O               171.6970504870       67.7648800421       98.3461199785
H               170.1481747855       66.3325869949       97.4519480771
H               170.2525073586       67.5391161137       94.7732059818
H               170.9688894879       69.5849703132       95.8235529446
H               169.5471685981       69.0139554044       96.6780270070
N               172.7511827583       66.1832416167       96.3105254544
C               174.1091809441       65.7400290658       96.1407676566
C               175.1310289767       66.3018473084       97.1317843679
O               176.2416778210       65.8043562972       97.2204728413
H               172.2639142792       65.8666093603       97.1352455256
H               174.1376309027       64.6492322150       96.1907023957
H               174.4369535666       66.0510243212       95.1428845098
N               174.7421678387       67.3871090435       97.8145077572
C               175.6268029578       68.1229724206       98.6854742016
C               175.0825568159       68.2589714124      100.1122240592
O               175.5682181368       69.0565705556      100.9042918859
C               175.9582736062       69.5137032368       98.1241665549
C               174.6996785860       70.2882929291       97.7354197283
C               174.9765862937       71.7883307458       97.6542025730
C               173.7831055278       72.5765484264       97.1304594683
N               172.6190512625       72.4822735268       98.0509578825
H               173.7733163085       67.6746516650       97.7890701099
H               176.5541459192       67.5378638303       98.7597190192
H               176.4893902497       70.0480862986       98.9132976485
H               176.6161584538       69.4146625722       97.2609872719
H               174.3360195555       69.9338763190       96.7683114430
H               173.9271626022       70.0895618520       98.4800250291
H               175.2635354461       72.1523982737       98.6418891479
H               175.8160601661       71.9561395133       96.9790788416
H               174.0568222678       73.6271508109       97.0265501816
H               173.4798307130       72.1927547779       96.1552353276
H               171.8622896760       73.0975874785       97.7346501443
H               172.2297741830       71.4995062019       98.0907111522
H               172.8941586366       72.7455687424       99.0050073388
N               174.0454370969       67.4661366694      100.4095399376
C               173.5670823994       67.3552926915      101.7726202155
C               174.5997612453       66.5490206351      102.5565711275
O               175.1201081635       65.5660084150      102.0415087592
C               172.2158815665       66.6038289186      101.7613956897
O               171.2381589742       67.3010425899      101.0337933876
C               171.6656232857       66.4004847052      103.1696547922
H               173.8392843910       66.6757142946       99.8058926234
H               173.4489426986       68.3595763851      102.1903071373
H               172.4133065664       65.6239718721      101.2936129704
H               171.5416247614       67.4749923034      100.1171138196
H               170.7202096067       65.8707969647      103.1014725101
H               172.3526921818       65.8370708887      103.7936520192
H               171.4776560155       67.3679338976      103.6276922157
N               174.9198815070       66.9686840099      103.7875589274
C               175.7213065559       66.1045993935      104.6360177850
C               174.8175878504       64.9458904480      105.0796684564
O               173.7422803576       65.1682190224      105.6392047402
C               176.2693596863       66.8578421572      105.8443164780
C               177.4055560978       67.8127464309      105.4879075927
C               177.7517150065       68.6789515834      106.7288882411
O               176.8538744660       69.3841546662      107.2019742144
O               178.9290183047       68.5942890355      107.1817252255
H               174.4127251726       67.7148785590      104.2374049591
H               176.5430406959       65.7045966183      104.0351675591
H               175.4704375659       67.4322870679      106.3190772799
H               176.6279106011       66.1288765179      106.5772082737
H               178.2900797178       67.2638829732      105.1614586123
H               177.0871292302       68.4878040815      104.6913298614
N               175.2456604851       63.7337048392      104.7569082409
C               174.5566222546       62.5274221552      105.1518050345
C               175.4795842562       61.7576749284      106.0949952302
O               176.6871272177       61.9549402096      106.1285743369
C               174.1341131058       61.6705929018      103.9349751378
C               173.2529151855       62.4925378629      102.9964672194
C               175.3515460861       61.1296456044      103.1911400848
H               176.1650232912       63.6256135873      104.3325660201
H               173.6627997604       62.8423666826      105.7033441987
H               173.5537658482       60.8291168313      104.3289788045
H               172.8880746656       61.8676064647      102.1868833991
H               172.3989480227       62.9066745385      103.5277473789
H               173.8190567056       63.3210727065      102.5731548435
H               175.0324406841       60.5373262646      102.3392895303
H               175.9662681563       61.9502492410      102.8286189581
H               175.9427965714       60.5072023087      103.8565356082
N               174.8783208070       60.8370151425      106.8587104528
C               175.6391410872       60.1429878752      107.8771293636
C               175.1555980898       58.7078237355      108.0354604501
O               173.9702973639       58.4231739153      108.1132831477
C               175.5697847000       60.8937705183      109.2299483979
C               174.1549151901       60.9169242973      109.8026049674
C               176.5695940358       60.2885769851      110.2085032383
H               173.8664045105       60.7699372389      106.8704650360
H               176.6839622134       60.1613425432      107.5484513976
H               175.8829624495       61.9224443041      109.0124624893
H               174.1285547633       61.4949044725      110.7242118874
H               173.4675795260       61.3746368963      109.0943435538
H               173.8167141051       59.9075090955      110.0215886555
H               176.5634520123       60.8584989140      111.1327677340
H               176.3257773415       59.2529906880      110.4333093925
H               177.5710655108       60.3473965591      109.7893160459
N               171.2441721938       55.7940689185      106.7213933261
C               171.8559463291       57.0414816590      106.3209341051
C               170.8532208906       58.1932120303      106.4486163790
O               169.8422229302       58.3025395982      105.7621660466
C               172.4845937521       56.9544357877      104.9142961301
O               173.2331757762       58.1436221496      104.7475025285
C               171.4791120469       56.7543310571      103.7865609736
H               170.5011805613       55.4048485192      106.1217430736
H               172.6781210803       57.2313175346      107.0184204713
H               173.1674253412       56.0854351070      104.9358730071
H               173.6315425187       58.1281409976      103.8674974079
H               171.9996624793       56.6145076172      102.8416060320
H               170.8699554612       55.8748096271      103.9772509633
H               170.8241946236       57.6176142159      103.7105621271
N               170.0431752042       62.5240023006      107.1557227190
C               170.5504111061       63.8747333287      106.9601453091
C               171.2205563708       64.3337972635      108.2583492827
O               170.6792358004       64.1509731080      109.3458852062
C               169.4066241460       64.8231085610      106.6184872830
H               169.1380239764       62.4506705447      107.5979201074
H               171.2962740131       63.8456239846      106.1613749283
H               169.8134439998       65.7927133549      106.3497363897
H               168.8451451354       64.4313439210      105.7757622693
H               168.7528298137       64.9381864651      107.4795587303
N               167.4407673504       59.8162288061      104.6128676590
C               167.3625837257       60.9347867308      103.6893458090
C               166.6623789118       60.5075006385      102.3880325240
O               166.7304624923       59.3689231634      101.9511940147
C               168.7661189562       61.4461826190      103.3815412170
H               168.3454963554       59.4003328139      104.8031439142
H               166.7500153702       61.7108545640      104.1638013109
H               168.7202148898       62.3029347294      102.7160587157
H               169.2700426141       61.7233872119      104.3037351176
H               169.3412650520       60.6607463493      102.8961850410
N               165.9794876942       61.4908087680      101.7662874043
C               165.4019968467       61.2623859575      100.4536437412
C               166.5244555170       61.2144080621       99.4059982596
O               167.3838423180       62.0818239594       99.3398955616
C               164.4163728623       62.3677815991      100.0988839283
H               166.1122397392       62.4501338980      102.0478215939
H               164.8967481705       60.2922847647      100.5004462847
H               163.9123920568       62.1305604518       99.1657691975
H               163.6703946589       62.4655509707      100.8828893823
H               164.9437244334       63.3122990510       99.9771894266
H               164.6558950321       72.5159767834       94.7583499655
H               164.5600027428       74.9578191273       96.9561122486
H               163.1346635679       68.1103387862       94.9114601789
H               166.1703427768       67.2380879486       92.3765776719
H               168.9650043652       66.0159370405       92.2475290753
H               175.1232309119       67.3626640502       89.6569991436
H               177.6276412460       66.5664598403       90.6125312372
H               181.5886241813       67.0725125668       90.9106521818
H               185.8206774767       70.7737311167       96.2485445983
H               183.0373549565       71.5109838530       93.5549122263
H               180.0891953548       71.5568366638       92.5932236587
H               177.5200310811       71.5652587678       89.5743095648
H               178.0514776484       76.4476156381       90.3162130837
H               180.7144156786       76.3220249853       93.2836005088
H               185.7465095831       69.4578320741      100.5619722435
H               187.4155957210       66.0256752803      101.8233551958
H               183.5094050608       61.4973900402       98.3406373148
H               184.5181129902       68.4941341876      105.1554803214
H               180.2038852079       62.6478229576      108.9104661942
H               175.8171968984       57.9592371611      108.0791085541
H               171.8723293768       55.1508240889      106.7620706258
H               171.0044961058       58.9153421892      107.1236303365
H               169.9653591216       62.1139259566      106.3583632960
H               172.1104277799       64.7889873906      108.2278398820
H               167.1347208267       60.0710477740      105.4199629562
H               166.5666790153       60.4584784562       98.7527084257
