616
Properties=species:S:1:pos:R:3 pbc="F F F"
N      46.50400000      37.20900000      52.63600000 
C      46.64400000      38.65600000      52.58600000 
C      48.09600000      39.04800000      52.33000000 
O      49.01600000      38.28500000      52.63400000 
C      46.04000000      39.31100000      53.87300000 
C      46.83500000      38.93600000      55.13300000 
C      44.56900000      38.93400000      54.00800000 
C      46.29700000      39.60800000      56.40600000 
H      46.89500000      36.71200000      53.40800000 
H      46.04900000      39.00000000      51.74300000 
H      46.11900000      40.38200000      53.72500000 
H      46.81700000      37.85300000      55.27100000 
H      47.87100000      39.21200000      54.99300000 
H      44.06200000      39.58900000      54.70800000 
H      44.04000000      39.02700000      53.04800000 
H      44.43800000      37.92000000      54.34400000 
H      46.97400000      39.41300000      57.24300000 
H      46.21300000      40.66900000      56.27600000 
H      45.32600000      39.20600000      56.67100000 
N      44.01400000      52.71500000      58.94600000 
C      44.51800000      51.45800000      59.46900000 
C      44.79400000      51.56200000      60.94900000 
O      45.48600000      52.53200000      61.41100000 
H      43.08300000      52.94500000      59.24700000 
H      43.84600000      50.67100000      59.26000000 
H      45.46100000      51.23900000      58.97500000 
N      44.28000000      50.61900000      61.71900000 
C      44.48200000      50.58200000      63.16100000 
C      44.48000000      49.14900000      63.63900000 
O      43.96000000      48.21100000      62.97800000 
C      43.50500000      51.49900000      63.91500000 
C      42.02000000      51.33200000      63.66200000 
O      41.61400000      50.34600000      62.98900000 
O      41.29200000      52.22000000      64.17100000 
H      43.65700000      49.96300000      61.35100000 
H      45.48300000      50.95600000      63.34000000 
H      43.68300000      51.41500000      64.98200000 
H      43.76400000      52.52100000      63.66000000 
N      45.09100000      48.96200000      64.79800000 
C      45.13500000      47.70300000      65.53600000 
C      44.30600000      47.92300000      66.80300000 
O      44.60900000      48.82900000      67.58500000 
C      46.59700000      47.32400000      65.86600000 
C      46.81200000      46.08700000      66.72500000 
C      46.27500000      44.80400000      66.06800000 
C      48.32400000      45.91900000      67.02200000 
H      45.59900000      49.72400000      65.22500000 
H      44.67700000      46.94200000      64.91600000 
H      47.10300000      47.21000000      64.90400000 
H      47.05000000      48.19100000      66.35200000 
H      46.30300000      46.23000000      67.68400000 
H      46.49400000      43.94900000      66.69400000 
H      45.20500000      44.83600000      65.91700000 
H      46.75900000      44.65100000      65.10500000 
H      48.47800000      45.08200000      67.69100000 
H      48.86000000      45.70800000      66.09200000 
H      48.73500000      46.79600000      67.46500000 
N      43.25000000      47.12900000      66.97700000 
C      42.32700000      47.22500000      68.09500000 
C      42.55300000      46.01600000      69.01800000 
O      42.61800000      44.88900000      68.51800000 
C      40.86700000      47.21200000      67.63100000 
C      40.49100000      48.22800000      66.53700000 
C      39.06200000      47.97300000      66.02800000 
C      40.62800000      49.68500000      67.01200000 
H      43.01800000      46.44400000      66.27900000 
H      42.55400000      48.14800000      68.64000000 
H      40.65000000      46.21200000      67.24800000 
H      40.22200000      47.36800000      68.51200000 
H      41.16600000      48.08700000      65.69400000 
H      38.82100000      48.63000000      65.22900000 
H      38.95500000      46.94700000      65.68300000 
H      38.33500000      48.12600000      66.83100000 
H      40.35000000      50.36800000      66.22500000 
H      39.97300000      49.86900000      67.87400000 
H      41.64000000      49.90900000      67.30200000 
N      42.64100000      46.26600000      70.33500000 
C      42.87300000      45.16300000      71.30700000 
C      41.78200000      45.26000000      72.38400000 
O      41.68800000      46.27200000      73.08900000 
C      44.25100000      45.29500000      71.97100000 
C      45.43900000      45.14400000      70.98800000 
C      46.77000000      45.47800000      71.69900000 
C      45.51500000      43.73000000      70.38700000 
H      42.62400000      47.18000000      70.67600000 
H      42.77500000      44.24700000      70.77800000 
H      44.31400000      46.23400000      72.46700000 
H      44.32700000      44.50900000      72.73700000 
H      45.31000000      45.85900000      70.19100000 
H      47.58700000      45.41500000      70.99700000 
H      46.75600000      46.46600000      72.12500000 
H      46.96800000      44.76100000      72.50500000 
H      46.36900000      43.64500000      69.72900000 
H      45.61100000      42.98200000      71.17300000 
H      44.62700000      43.51400000      69.81000000 
N      40.97600000      44.19500000      72.50500000 
C      39.85800000      44.10900000      73.44100000 
C      40.07300000      42.90100000      74.36700000 
O      40.24900000      41.77800000      73.87500000 
C      38.54200000      43.85700000      72.71500000 
C      38.12200000      44.93800000      71.70200000 
O      38.43100000      46.13200000      71.93700000 
O      37.44400000      44.52000000      70.73900000 
H      41.12900000      43.40100000      71.89000000 
H      39.83100000      45.01900000      73.99700000 
H      38.58200000      42.92600000      72.20400000 
H      37.74300000      43.79000000      73.45400000 
N      54.44200000      45.59400000      72.01100000 
C      54.11500000      46.10300000      70.68000000 
C      55.29000000      46.99000000      70.24500000 
O      55.44600000      48.11900000      70.82700000 
C      52.75000000      46.85700000      70.69400000 
C      51.60500000      45.94500000      71.18300000 
C      52.43500000      47.41700000      69.31800000 
C      50.90800000      46.48100000      72.43600000 
H      54.71500000      46.26400000      72.70000000 
H      54.04900000      45.25400000      70.01800000 
H      52.87300000      47.68500000      71.39800000 
H      50.87200000      45.85800000      70.38600000 
H      51.95600000      44.93600000      71.37000000 
H      51.48400000      47.98000000      69.36000000 
H      53.19400000      48.09900000      68.93600000 
H      52.29600000      46.61400000      68.60100000 
H      50.03400000      45.88500000      72.68300000 
H      51.57900000      46.47300000      73.28500000 
H      50.57400000      47.51300000      72.28000000 
N      42.15000000      49.22800000      73.91000000 
C      43.04400000      50.24100000      73.38900000 
C      43.15000000      50.12300000      71.87600000 
O      42.60700000      49.19200000      71.27500000 
C      44.44100000      50.19500000      74.07400000 
O      45.11000000      51.45400000      73.83300000 
C      45.33500000      49.09800000      73.53900000 
H      42.02000000      48.39600000      73.38200000 
H      42.61300000      51.22900000      73.62800000 
H      44.26500000      50.06200000      75.12500000 
H      44.77000000      52.15500000      74.39500000 
H      46.21200000      49.00700000      74.14600000 
H      44.81800000      48.14300000      73.55500000 
H      45.64600000      49.29500000      72.53100000 
N      43.87400000      51.05400000      71.27600000 
C      44.20000000      51.00200000      69.86100000 
C      45.56600000      51.60300000      69.61900000 
O      45.96700000      52.56900000      70.35200000 
C      43.16300000      51.76400000      69.03800000 
O      43.45700000      51.75800000      67.65100000 
H      44.35600000      51.74100000      71.82100000 
H      44.20000000      49.97100000      69.54400000 
H      42.17500000      51.33500000      69.23600000 
H      43.12900000      52.79400000      69.34100000 
H      43.61400000      50.86400000      67.32000000 
N      46.24800000      51.11600000      68.62100000 
C      47.49800000      51.65800000      68.10200000 
C      47.27000000      51.99900000      66.63200000 
O      47.38700000      51.12100000      65.76700000 
C      48.71300000      50.74400000      68.30000000 
C      48.83000000      50.26300000      69.75500000 
C      49.98600000      51.47700000      67.85900000 
C      48.17800000      48.91100000      70.05300000 
H      45.88500000      50.30200000      68.12800000 
H      47.69600000      52.58600000      68.66800000 
H      48.57600000      49.87500000      67.65300000 
H      49.86900000      50.19900000      70.02100000 
H      48.39800000      51.01700000      70.41800000 
H      50.84400000      50.79800000      67.89100000 
H      49.91200000      51.86100000      66.83600000 
H      50.19200000      52.30900000      68.51600000 
H      48.24900000      48.66100000      71.09100000 
H      47.12800000      48.89100000      69.77100000 
H      48.67800000      48.12000000      69.48500000 
N      46.89500000      53.23300000      66.30000000 
C      46.70100000      53.60500000      64.89100000 
C      48.03300000      53.63000000      64.14000000 
O      49.08700000      53.88900000      64.71300000 
C      46.11000000      55.03300000      64.94800000 
C      45.52400000      55.13500000      66.36600000 
C      46.51900000      54.34500000      67.19200000 
H      46.03100000      52.91100000      64.41300000 
H      46.86900000      55.76600000      64.80200000 
H      45.36100000      55.16500000      64.16700000 
H      45.42100000      56.15200000      66.68900000 
H      44.54900000      54.66000000      66.40600000 
H      47.39400000      54.93600000      67.44100000 
H      46.08500000      53.97600000      68.11700000 
N      47.93500000      53.43100000      62.82700000 
C      49.10900000      53.55200000      61.96900000 
C      49.44000000      55.01600000      61.73700000 
O      48.64700000      55.96500000      61.98200000 
C      48.88400000      52.78900000      60.66100000 
C      49.32000000      51.30900000      60.70200000 
C      50.84000000      51.15900000      60.63500000 
C      48.73900000      50.50700000      61.89000000 
H      47.07500000      53.18300000      62.40300000 
H      49.96300000      53.14500000      62.49800000 
H      47.84600000      52.87100000      60.37900000 
H      49.45700000      53.27400000      59.85300000 
H      48.91400000      50.87100000      59.79100000 
H      51.12200000      50.11300000      60.60200000 
H      51.25100000      51.65400000      59.77800000 
H      51.31200000      51.58600000      61.53300000 
H      49.03700000      49.46400000      61.78900000 
H      49.10100000      50.87300000      62.82100000 
H      47.64800000      50.54900000      61.89300000 
N      55.84300000      44.78400000      62.40300000 
C      55.19900000      45.07500000      63.68900000 
C      55.26700000      43.77300000      64.46600000 
O      54.65100000      42.78200000      64.06600000 
C      53.77500000      45.60700000      63.43900000 
C      52.87600000      45.85900000      64.65700000 
C      53.54000000      46.69200000      65.75600000 
C      51.59800000      46.59200000      64.20300000 
H      55.77800000      43.84400000      62.07900000 
H      55.80900000      45.83400000      64.19800000 
H      53.90000000      46.53000000      62.89600000 
H      53.29100000      44.89800000      62.78200000 
H      52.58700000      44.88600000      65.07400000 
H      52.83600000      46.81300000      66.58700000 
H      54.42700000      46.21400000      66.17700000 
H      53.80000000      47.66400000      65.39600000 
H      50.92500000      46.71700000      65.04300000 
H      51.85800000      47.57500000      63.83500000 
H      51.08200000      46.06500000      63.42900000 
N      54.39900000      41.74300000      67.69300000 
C      53.38400000      41.70500000      68.74300000 
C      53.55300000      40.38900000      69.48000000 
O      53.50900000      39.29600000      68.85600000 
C      51.96800000      41.86600000      68.17600000 
C      50.89400000      41.73100000      69.28700000 
C      51.84100000      43.22100000      67.48000000 
H      54.33900000      41.00000000      67.00700000 
H      53.60300000      42.50700000      69.41800000 
H      51.80200000      41.07100000      67.44300000 
H      49.92400000      41.97100000      68.87900000 
H      50.85200000      40.72500000      69.67300000 
H      51.10100000      42.41200000      70.10100000 
H      50.83400000      43.35600000      67.09100000 
H      52.04900000      44.03300000      68.16000000 
H      52.52300000      43.29000000      66.64100000 
N      51.76800000      38.71400000      72.82200000 
C      50.72400000      38.81100000      73.84600000 
C      50.86900000      37.52500000      74.68000000 
O      50.62100000      36.41400000      74.21700000 
C      49.32000000      38.96900000      73.20200000 
C      49.22600000      40.41300000      72.64200000 
C      48.20100000      38.69700000      74.23200000 
C      47.96500000      40.68100000      71.79300000 
H      51.67300000      37.98900000      72.13400000 
H      50.92800000      39.64700000      74.44300000 
H      49.21900000      38.26000000      72.39200000 
H      49.29200000      41.11300000      73.44000000 
H      50.09300000      40.57200000      71.99000000 
H      47.23100000      38.88700000      73.79400000 
H      48.22200000      37.67300000      74.56700000 
H      48.30900000      39.34800000      75.09900000 
H      48.04400000      41.64800000      71.32000000 
H      47.81800000      39.92700000      71.03100000 
H      47.07400000      40.70600000      72.42800000 
N      49.47000000      34.40400000      71.79300000 
C      49.26700000      34.82400000      70.42300000 
C      50.52500000      35.58600000      69.97100000 
O      50.86800000      36.60600000      70.55800000 
C      47.96000000      35.64600000      70.26800000 
C      47.43800000      35.59900000      68.84600000 
C      47.48500000      36.70000000      67.98000000 
C      46.84500000      34.41900000      68.35700000 
C      46.98200000      36.60900000      66.70100000 
C      46.36300000      34.33800000      67.10400000 
C      46.42200000      35.41400000      66.24800000 
O      45.93600000      35.27600000      64.96600000 
H      49.67400000      35.09400000      72.47900000 
H      49.16700000      33.93000000      69.83400000 
H      47.24800000      35.22500000      70.92900000 
H      48.13400000      36.67200000      70.57700000 
H      47.91300000      37.60500000      68.31600000 
H      46.77800000      33.56900000      69.03000000 
H      47.02000000      37.46600000      66.03900000 
H      45.89900000      33.41000000      66.73300000 
H      45.70900000      36.10500000      64.50200000 
N      52.62600000      36.52600000      66.23700000 
C      52.82400000      36.54300000      64.80100000 
C      53.94200000      37.52600000      64.52300000 
O      54.08200000      38.54800000      65.22100000 
C      51.56900000      37.03100000      64.02800000 
C      50.35800000      36.10500000      64.13400000 
C      49.16000000      36.58900000      63.28400000 
C      48.83900000      38.04800000      63.52000000 
N      47.59900000      38.48200000      62.84100000 
H      52.75300000      37.40000000      66.71400000 
H      53.08700000      35.55400000      64.47600000 
H      51.32400000      38.01600000      64.41200000 
H      51.84900000      37.15800000      62.98400000 
H      50.63100000      35.11000000      63.80000000 
H      50.04400000      36.02700000      65.15300000 
H      49.37700000      36.44600000      62.22400000 
H      48.30100000      35.98200000      63.51000000 
H      48.70900000      38.26000000      64.58000000 
H      49.63700000      38.69600000      63.15200000 
H      47.48500000      39.49800000      62.94000000 
H      47.63800000      38.30300000      61.84900000 
H      46.73100000      38.06800000      63.19900000 
N      53.68800000      40.93700000      60.38500000 
C      52.29700000      40.80500000      60.05600000 
C      51.89600000      41.78900000      58.96600000 
O      52.26600000      42.98000000      58.97600000 
C      51.36100000      40.85700000      61.29000000 
C      51.65200000      41.88100000      62.42100000 
C      50.85500000      43.17700000      62.30200000 
C      51.35200000      41.21800000      63.78500000 
H      53.95000000      41.10800000      61.35200000 
H      52.17600000      39.81500000      59.64900000 
H      50.35400000      40.96300000      60.95100000 
H      51.43500000      39.85900000      61.72200000 
H      52.71000000      42.13700000      62.42900000 
H      51.04600000      43.79800000      63.16500000 
H      51.14700000      43.74700000      61.41300000 
H      49.78600000      42.98800000      62.24700000 
H      51.59900000      41.89800000      64.59300000 
H      50.30100000      40.96300000      63.87000000 
H      51.93700000      40.32300000      63.91800000 
N      51.09000000      41.34200000      57.98800000 
C      50.65800000      42.24500000      56.93300000 
C      49.86600000      43.41400000      57.39400000 
O      49.12200000      43.36200000      58.42600000 
C      49.82100000      41.33400000      56.00300000 
C      50.44000000      39.95500000      56.20100000 
C      50.72800000      39.92800000      57.70800000 
H      51.52600000      42.60800000      56.39300000 
H      48.79400000      41.33700000      56.31300000 
H      49.85000000      41.67900000      54.95900000 
H      49.79700000      39.14200000      55.90000000 
H      51.36800000      39.87600000      55.64600000 
H      49.86700000      39.63600000      58.26500000 
H      51.53400000      39.26500000      57.92600000 
N      46.83100000      45.92400000      57.21100000 
C      45.44900000      45.75200000      56.78700000 
C      44.58600000      46.89300000      57.34000000 
O      44.94300000      47.59000000      58.27000000 
C      44.92700000      44.33000000      57.17700000 
C      44.59400000      44.22200000      58.68000000 
C      43.77700000      43.85100000      56.31000000 
H      46.99900000      46.10900000      58.17500000 
H      45.44300000      45.81900000      55.72500000 
H      45.78800000      43.68600000      56.99200000 
H      44.41000000      43.19000000      58.94100000 
H      45.39200000      44.59600000      59.31200000 
H      43.69000000      44.77300000      58.91600000 
H      43.66000000      42.76900000      56.43000000 
H      42.82700000      44.30000000      56.57900000 
H      43.97400000      44.03300000      55.25000000 
N      43.42500000      47.06700000      56.71600000 
C      42.49800000      48.18000000      56.98400000 
C      41.97300000      48.20700000      58.41500000 
O      41.91200000      49.27200000      59.00600000 
C      41.33500000      48.06300000      55.97000000 
C      40.23700000      49.10600000      56.06000000 
C      40.58500000      50.54500000      55.66300000 
N      40.90200000      50.62200000      54.23100000 
C      40.86200000      51.68800000      53.46700000 
N      40.49600000      52.89900000      53.97700000 
N      41.16300000      51.62600000      52.19200000 
H      43.18600000      46.48500000      55.92300000 
H      43.03900000      49.10400000      56.85600000 
H      41.80100000      48.06900000      54.96600000 
H      40.90400000      47.09900000      56.10100000 
H      39.42400000      48.79500000      55.41500000 
H      39.82700000      49.14300000      57.06600000 
H      39.76900000      51.17600000      55.88900000 
H      41.45400000      50.90500000      56.23900000 
H      41.19600000      49.78000000      53.78600000 
H      40.28900000      53.01800000      54.92400000 
H      40.41700000      53.68600000      53.37700000 
H      41.42000000      50.73600000      51.78600000 
H      41.28400000      52.39900000      51.60100000 
N      41.54000000      47.05200000      58.92900000 
C      40.93400000      46.97600000      60.27600000 
C      41.24800000      45.64100000      60.85200000 
O      40.78700000      44.59800000      60.30800000 
C      39.41800000      47.24000000      60.17300000 
C      38.71000000      47.32900000      61.51600000 
C      37.23500000      47.73800000      61.40900000 
C      37.05000000      49.19900000      61.03600000 
N      35.58900000      49.56700000      60.96800000 
H      41.48400000      46.22300000      58.37300000 
H      41.38100000      47.76800000      60.85500000 
H      39.28800000      48.18300000      59.62000000 
H      38.97600000      46.46900000      59.57500000 
H      38.74900000      46.37500000      62.02500000 
H      39.21600000      48.04200000      62.16700000 
H      36.73800000      47.11200000      60.65800000 
H      36.72400000      47.55200000      62.34800000 
H      37.49300000      49.84700000      61.76600000 
H      37.46600000      49.44200000      60.06400000 
H      35.46800000      50.53800000      60.73600000 
H      35.11400000      49.03500000      60.25600000 
H      35.12600000      49.40000000      61.83800000 
N      41.99500000      45.59600000      61.96500000 
C      42.33300000      44.34700000      62.63400000 
C      41.89000000      44.43000000      64.07800000 
O      42.22300000      45.40800000      64.76200000 
C      43.84800000      44.04500000      62.55600000 
C      44.13900000      42.58800000      62.95500000 
C      45.62000000      42.24800000      63.03700000 
N      46.36400000      42.42200000      61.77700000 
C      46.38500000      41.54700000      60.77700000 
N      45.63400000      40.40800000      60.85200000 
N      47.10900000      41.72900000      59.72100000 
H      42.36800000      46.44400000      62.34600000 
H      41.79200000      43.56300000      62.12400000 
H      44.16800000      44.21900000      61.52800000 
H      44.38000000      44.73200000      63.18500000 
H      43.71400000      42.37100000      63.91300000 
H      43.64100000      41.92900000      62.24400000 
H      46.11400000      42.90400000      63.75100000 
H      45.74200000      41.24800000      63.39800000 
H      46.88700000      43.22300000      61.66700000 
H      45.05000000      40.20200000      61.60900000 
H      45.65800000      39.76000000      60.10700000 
H      47.73800000      42.53600000      59.62500000 
H      47.11800000      41.12400000      58.94800000 
N      41.22300000      43.39000000      64.54300000 
C      40.72700000      43.32400000      65.90500000 
C      41.20800000      42.01800000      66.50600000 
O      40.75200000      40.92400000      66.03700000 
C      39.20200000      43.39400000      65.95300000 
O      38.80900000      44.49200000      65.10100000 
C      38.65700000      43.59300000      67.34600000 
H      40.95100000      42.64300000      63.90900000 
H      41.14800000      44.16300000      66.45400000 
H      38.78900000      42.46900000      65.53600000 
H      37.86600000      44.57100000      65.01500000 
H      37.57800000      43.55500000      67.36500000 
H      39.01300000      42.83900000      68.04800000 
H      38.96300000      44.58100000      67.74200000 
N      42.08600000      42.04800000      67.49300000 
C      42.49400000      40.86300000      68.23300000 
C      41.73600000      40.93000000      69.55500000 
O      41.94000000      41.84000000      70.36000000 
C      44.03000000      40.76400000      68.40600000 
C      44.67500000      40.38700000      67.05900000 
C      44.40100000      39.75700000      69.52200000 
C      46.20600000      40.54400000      67.02400000 
H      42.38500000      42.94500000      67.84500000 
H      42.16200000      40.00300000      67.67700000 
H      44.39500000      41.75700000      68.69500000 
H      44.41600000      39.34100000      66.83500000 
H      44.24300000      40.99300000      66.27200000 
H      45.47500000      39.63200000      69.56800000 
H      44.06200000      40.12200000      70.49300000 
H      43.94700000      38.79700000      69.32600000 
H      46.57800000      40.26500000      66.03400000 
H      46.49400000      41.57700000      67.19700000 
H      46.69900000      39.92500000      67.73700000 
N      40.82000000      39.98200000      69.73700000 
C      39.93100000      39.97000000      70.89900000 
C      40.07400000      38.63500000      71.61100000 
O      40.18500000      37.56500000      70.98000000 
C      38.47700000      40.22700000      70.49200000 
O      38.40700000      41.53000000      69.87900000 
H      40.69700000      39.24300000      69.06700000 
H      40.24700000      40.76600000      71.55700000 
H      38.14400000      39.51000000      69.77400000 
H      37.83700000      40.17500000      71.36500000 
H      37.84700000      42.16300000      70.32400000 
N      40.09100000      38.69900000      72.94900000 
C      40.35600000      37.53700000      73.78000000 
C      39.20700000      37.34300000      74.75800000 
O      38.90800000      38.27500000      75.56600000 
C      41.74400000      37.61400000      74.47200000 
C      42.03500000      39.00200000      75.05600000 
C      42.82700000      37.20600000      73.45400000 
C      43.46200000      39.21900000      75.59800000 
H      40.02600000      39.57700000      73.38600000 
H      40.35700000      36.69500000      73.12800000 
H      41.74800000      36.87500000      75.26000000 
H      41.86500000      39.75000000      74.30300000 
H      41.32000000      39.18400000      75.85900000 
H      43.78400000      37.08700000      73.92000000 
H      42.56000000      36.26800000      72.98600000 
H      42.92200000      37.95000000      72.66800000 
H      43.53000000      40.19100000      76.01800000 
H      43.72900000      38.48500000      76.35900000 
H      44.18600000      39.15200000      74.80000000 
N      41.19800000      32.93400000      71.47500000 
C      41.64400000      34.13000000      70.79200000 
C      41.01300000      34.18100000      69.38800000 
O      41.11100000      33.20000000      68.64300000 
C      43.19400000      34.15100000      70.64700000 
C      43.65300000      35.52200000      70.11300000 
C      43.87600000      33.81000000      71.96900000 
H      41.67800000      32.09900000      71.34400000 
H      41.32000000      34.99600000      71.36600000 
H      43.45900000      33.40000000      69.92800000 
H      44.72700000      35.56800000      70.09800000 
H      43.29400000      35.69800000      69.10300000 
H      43.28400000      36.32300000      70.73200000 
H      44.95300000      33.95100000      71.86100000 
H      43.54900000      34.42200000      72.78700000 
H      43.73500000      32.77800000      72.24700000 
N      40.41200000      35.31400000      69.04100000 
C      39.87300000      35.51700000      67.70800000 
C      40.51100000      36.75300000      67.08600000 
O      40.51600000      37.85600000      67.67700000 
C      38.33600000      35.58200000      67.63300000 
C      37.69800000      36.46600000      68.68900000 
C      36.25500000      36.87600000      68.41500000 
O      35.69400000      36.48100000      67.33800000 
O      35.69900000      37.60900000      69.28800000 
H      40.33600000      36.07000000      69.68300000 
H      40.19100000      34.65600000      67.11900000 
H      38.05500000      35.92400000      66.65300000 
H      37.96100000      34.56900000      67.72200000 
H      37.70200000      35.96600000      69.66200000 
H      38.25600000      37.37100000      68.82600000 
N      41.03500000      36.58100000      65.86400000 
C      41.72800000      37.64500000      65.11600000 
C      40.87500000      37.94300000      63.90500000 
O      40.89700000      37.21100000      62.90400000 
C      43.12100000      37.08500000      64.76800000 
C      44.02400000      38.02100000      63.95400000 
O      43.62300000      39.07500000      63.50700000 
O      45.22100000      37.54700000      63.79700000 
H      41.02200000      35.68900000      65.45900000 
H      41.81700000      38.49900000      65.74900000 
H      43.62200000      36.85100000      65.68300000 
H      43.01500000      36.16800000      64.21000000 
N      40.06600000      39.02400000      64.02700000 
C      39.20100000      39.42900000      62.92400000 
C      40.00700000      40.34800000      62.01100000 
O      40.63300000      41.32500000      62.47500000 
C      37.95200000      40.20000000      63.38700000 
C      37.05700000      39.48300000      64.39900000 
C      35.78600000      40.29200000      64.62500000 
C      35.00100000      39.85500000      65.86300000 
N      33.75600000      40.68900000      66.00300000 
H      40.18700000      39.64800000      64.78100000 
H      38.89300000      38.55500000      62.37900000 
H      38.26900000      41.16100000      63.82100000 
H      37.37600000      40.44100000      62.49800000 
H      36.80400000      38.48800000      64.03800000 
H      37.58000000      39.36200000      65.34600000 
H      36.02400000      41.34500000      64.72900000 
H      35.12600000      40.22000000      63.73300000 
H      34.67600000      38.83000000      65.80900000 
H      35.56900000      40.00800000      66.74900000 
H      33.24400000      40.45900000      66.85400000 
H      33.96300000      41.68000000      66.05200000 
H      33.10700000      40.55600000      65.23200000 
N      40.04200000      40.02900000      60.70800000 
C      40.87200000      40.70800000      59.73800000 
C      39.98000000      41.07100000      58.56500000 
O      39.46700000      40.15700000      57.86800000 
C      42.13300000      39.90200000      59.38500000 
C      41.90100000      38.39300000      59.18800000 
C      42.86300000      40.49100000      58.17000000 
H      39.55500000      39.22700000      60.40800000 
H      41.20000000      41.64100000      60.19800000 
H      42.78300000      40.01600000      60.26500000 
H      42.85400000      37.92000000      58.97800000 
H      41.51600000      37.92400000      60.09800000 
H      41.23700000      38.19400000      58.38400000 
H      43.85300000      40.08200000      58.10700000 
H      42.32300000      40.26400000      57.26400000 
H      42.94000000      41.57000000      58.26300000 
N      39.74700000      42.35900000      58.36700000 
C      38.75300000      42.81900000      57.38900000 
C      39.32200000      43.99200000      56.59900000 
O      40.11200000      44.81500000      57.06600000 
C      37.43900000      43.28800000      58.09000000 
C      36.80500000      42.16100000      58.89100000 
C      35.50100000      42.52200000      59.60700000 
O      34.90200000      43.56200000      59.25800000 
O      35.13000000      41.71700000      60.50800000 
H      40.14900000      43.05300000      58.96800000 
H      38.53400000      42.01900000      56.74200000 
H      37.67500000      44.11200000      58.76100000 
H      36.76300000      43.65200000      57.34600000 
H      36.57600000      41.32400000      58.22300000 
H      37.47700000      41.76200000      59.62400000 
N      38.85500000      44.07100000      55.33800000 
C      39.16000000      45.18900000      54.45000000 
C      37.88500000      45.42000000      53.64600000 
O      37.48800000      44.53300000      52.85100000 
C      40.35900000      44.86500000      53.56300000 
C      40.80700000      45.99000000      52.69900000 
O      40.14600000      47.04800000      52.58600000 
N      41.97000000      45.81800000      52.03200000 
H      38.29900000      43.35400000      54.96900000 
H      39.36600000      46.04700000      55.04900000 
H      41.18200000      44.56800000      54.21300000 
H      40.13500000      44.00700000      52.94400000 
H      42.29900000      46.54100000      51.42400000 
H      42.49900000      45.00400000      52.11900000 
H      45.63065322      36.99186659      52.64688503 
H      48.30924519      39.93101875      51.91190386 
H      44.54984076      53.38744546      59.21187926 
H      40.07013657      43.02488285      75.35929272 
H      53.72553562      45.17231914      72.35576665 
H      55.90980370      46.68061394      69.52380402 
H      42.44793927      48.94796592      74.71175626 
H      50.33300632      55.27441587      61.36854248 
H      55.47295550      45.29312760      61.75968347 
H      55.81151182      43.71805731      65.30295172 
H      54.33196149      42.51673950      67.23821101 
H      53.70068122      40.38519536      70.46902770 
H      51.80360187      39.48283077      72.35548981 
H      51.17375048      37.57749488      75.63098446 
H      48.72725392      33.99528043      72.09512012 
H      51.06294041      35.24915097      69.19824335 
H      51.78494852      36.26390183      66.42121985 
H      54.57952954      37.35855172      63.77099126 
H      54.12222259      40.18045041      60.16345211 
H      49.90722959      44.27629396      56.88927310 
H      47.29634955      45.17535010      57.02941496 
H      38.69275148      36.48536579      74.76146835 
H      41.22683684      33.06759855      72.36456161 
H      37.37299482      46.27211080      53.75443378 
