 289 
 
N                57.3343706641       53.9268848414       47.1274980323
C                57.7761038337       55.2902593653       47.3188340808
C                58.7054038574       55.6070997859       46.1485640293
O                59.2716856438       54.7202403659       45.5266211529
C                58.4638938094       55.5298927337       48.6782697683
C                59.8905293652       54.9724595141       48.8040382500
C                60.8391430615       56.0059051120       49.4236359678
C                61.1673444928       57.1034294037       48.4122631799
N                61.6818233790       58.3379371291       49.0559331503
H                57.7884264336       53.4481801141       46.3589232768
H                56.8916492537       55.9416425917       47.2856308570
H                58.4597727810       56.6067559617       48.8451704790
H                57.8141988813       55.0835575940       49.4314103650
H                59.8780642869       54.0775848464       49.4249999170
H                60.2681333843       54.6794132846       47.8247579776
H                60.3541697377       56.4319021077       50.3032256636
H                61.7526826637       55.5073664186       49.7432054454
H                61.9121275249       56.7472382158       47.7012551651
H                60.2707413701       57.3750125926       47.8557045957
H                61.7098245583       59.1165577716       48.3579929867
H                61.0572589464       58.6352146273       49.8159350789
H                62.6343834479       58.2103194624       49.4407877990
N                61.6103794847       62.5497243826       46.5534572066
C                61.6775430405       63.1440346745       47.8802664317
C                61.0809803528       64.5624688021       47.8484946434
O                61.7085908354       65.5431346794       48.1935835626
C                63.1035419948       63.1990253468       48.4351163525
C                63.0514758377       63.3426496510       49.9514996808
O                62.1326128353       62.8907892708       50.6183610940
N                64.1124117697       63.9521513275       50.4930902601
H                61.6776306742       63.1623652301       45.7541876706
H                61.0853624897       62.5174629721       48.5608483412
H                63.6139369589       62.2616004704       48.2074758056
H                63.6423599496       64.0393605135       48.0000143984
H                64.1553246191       64.0716009312       51.4932016518
H                64.8249527558       64.3769732345       49.9259431366
N                60.1766224462       51.6547410682       61.2406222385
C                59.8338774111       52.4177489854       60.0654604254
C                61.0967482437       52.5789830650       59.2265691753
O                62.2101758669       52.4026721197       59.7004193347
C                59.2022958649       53.7682572595       60.4371223494
C                60.2011116907       54.6788549631       61.1310362161
C                59.6108076159       55.9646722131       61.7441041308
O                60.4252940590       56.8145334272       62.1471118410
O                58.3648683711       56.0530137018       61.8253295327
H                61.1367215743       51.7242258277       61.5464953879
H                59.1036879572       51.8196236360       59.5053375067
H                58.8144327866       54.2513660086       59.5400502694
H                58.3618808992       53.5650930538       61.1026425718
H                60.6670136087       54.1462593530       61.9652617808
H                60.9982013033       54.9789444587       60.4459595053
N                60.8442825266       52.8705853337       57.9451108972
C                61.8511655213       53.2888154489       56.9942471837
C                61.6883194998       54.7885982581       56.7905848773
O                60.6256511019       55.2564389567       56.4013671171
C                61.6125292754       52.5922818925       55.6480555919
C                61.6292869446       51.0667275519       55.7807999965
C                61.0229943454       50.4027862074       54.5468758087
C                63.0588323023       50.5793787323       55.9933208052
H                59.8975269193       53.1023566647       57.6763492308
H                62.8329924606       53.0659494033       57.4147650439
H                60.6426776642       52.9342762916       55.2771231199
H                62.3829733800       52.9145188223       54.9413293415
H                61.0329842431       50.7961079856       56.6603714321
H                61.0990015742       49.3252176714       54.6557405925
H                59.9808643391       50.6877795681       54.4253490885
H                61.5793452247       50.7008912121       53.6602010398
H                63.0743173281       49.5209743109       56.2339523208
H                63.6522855184       50.7338440243       55.0935184967
H                63.5392291591       51.1216773290       56.8045186797
N                62.7594413866       55.5402611987       57.0856058669
C                62.8433033354       56.8919270864       56.5880752669
C                63.8355737963       56.9056205193       55.4216418679
O                64.6802345516       56.0307197455       55.2979161743
C                63.2587286152       57.9214150363       57.6564510380
O                63.0333710364       59.2295755411       57.2042230238
H                63.6262442023       55.0801907075       57.3434357057
H                61.8412573710       57.1499581425       56.2215381893
H                62.7079858182       57.7057102166       58.5767880894
H                64.3276327455       57.8330677476       57.8663405211
H                62.1178986100       59.4759760211       57.3894244860
N                63.6061571269       57.8790719042       54.5306748001
C                64.4312503115       58.0713624210       53.3557493846
C                65.4405166967       59.1843256633       53.6259426838
O                65.1441860857       60.1592891076       54.3043974662
C                63.5182359645       58.4541249738       52.1761934981
C                64.3140874496       58.7289209585       50.9289964308
C                64.7209128143       57.6826468269       50.0995838152
C                64.6795719560       60.0281510933       50.5937003994
C                65.4624092791       57.9259819927       48.9587188408
C                65.4185700245       60.2839376046       49.4539455386
C                65.8140130535       59.2342871737       48.6306101985
O                66.5191750797       59.4360182400       47.4903376338
H                63.1722318636       58.7237137235       54.8870524523
H                64.9640071384       57.1390474319       53.1506282864
H                62.8299503876       57.6204367554       52.0297139454
H                62.9598918046       59.3426782210       52.4759430674
H                64.4819363439       56.6651132208       50.3704452733
H                64.3850767722       60.8449601514       51.2341312389
H                65.7899975968       57.1113724116       48.3309039047
H                65.7235291936       61.2933344064       49.2187082938
H                66.7221158174       60.3736755427       47.3653696480
N                66.6001597368       59.0362031848       52.9814644060
C                67.7352496587       59.8659008321       53.2961236499
C                68.1523955353       60.6704424879       52.0740245082
O                68.0807607377       60.2249299828       50.9340871015
C                68.9225839725       58.9997928578       53.7129214801
C                68.5036098139       57.8773810075       54.7383650575
O                67.6396202182       58.1673874298       55.5818835801
O                69.1133308804       56.8011750896       54.6025566063
H                66.8115888845       58.1564690831       52.5210525055
H                67.4396104369       60.5208580372       54.1220881026
H                69.3421453904       58.4906577241       52.8434167052
H                69.6949010098       59.6089900804       54.1847545293
N                68.7153789783       61.8447801665       52.3751605504
C                69.2217724459       62.7862862146       51.3970201269
C                69.8994906139       62.0923942371       50.2088118283
O                69.7619551512       62.4957578377       49.0679934510
C                70.2519298258       63.7158202727       52.0625167785
C                69.8556603844       64.1956777172       53.4262130425
N                68.5716459265       64.1769925456       53.9003662983
C                70.6820423626       64.7165878741       54.3861229930
C                68.6255739595       64.6864219048       55.1037742145
N                69.8822846093       65.0329866604       55.4460559145
H                68.5234174308       62.2789045918       53.2740964840
H                68.3979100171       63.3890749400       50.9998225377
H                71.2083989238       63.1981691743       52.1536652535
H                70.4013349772       64.5723521043       51.4009011464
H                71.7384525509       64.8782074119       54.3945061296
H                67.7822683677       64.8119758186       55.7514804130
H                70.1826143864       65.4398130012       56.3180603979
N                70.7359397476       61.0916373486       50.5388890560
C                71.6367403474       60.4581905571       49.5992622310
C                71.0550771554       59.2801718807       48.8032013519
O                71.7613787678       58.6764725183       48.0065755628
C                72.9070992457       60.0356497467       50.3562573631
C                74.0589419771       59.6246826773       49.4393713164
C                75.2200323037       59.0438893150       50.2283556678
O                75.2859526674       59.0477508151       51.4492472600
N                76.1709313930       58.4846682019       49.4609822663
H                70.7428287517       60.7496944292       51.4876965660
H                71.8881570996       61.2163248743       48.8474026806
H                73.2305455784       60.8721531060       50.9806743399
H                72.6646647178       59.2016857305       51.0203098028
H                73.7078612476       58.8758850552       48.7255491027
H                74.4151695916       60.4892768849       48.8732307533
H                76.1195372182       58.5208428252       48.4573971545
H                77.0065529471       58.1207066233       49.8910749982
N                69.7735027059       58.9476445181       49.0069829379
C                69.1810613991       57.8843801393       48.2290559323
C                68.8915052826       56.6027856823       48.9976515870
O                68.3097281308       55.6668999816       48.4706978888
H                69.1642302937       59.4810196761       49.6191339790
H                68.2674184163       58.2222231092       47.7372104504
H                69.9074636776       57.6158965738       47.4519580292
N                69.4271189042       56.5466991981       50.2296653051
C                69.2779354075       55.3970722925       51.0885246831
C                68.0742146487       55.5687592264       52.0227687005
O                67.3105626746       56.5233040957       51.9182518991
C                70.5838374578       55.1204117378       51.8344202033
C                71.7326751819       54.8465782109       50.8582511311
C                72.8639291320       54.0538561629       51.5118474753
C                73.5908395612       54.8688866546       52.5772859217
N                74.7139337005       54.0692221298       53.1424048459
H                69.6901187646       57.4161818565       50.6692076009
H                69.0287317952       54.5603629124       50.4233887288
H                70.7885436475       55.9698476689       52.4877979676
H                70.4327935987       54.2520796226       52.4759340540
H                71.3347578741       54.2672672573       50.0236211969
H                72.1109418393       55.7857021729       50.4535683247
H                72.4327797442       53.1568055700       51.9594813743
H                73.5644136388       53.7558938624       50.7317046671
H                73.9899798266       55.7868040582       52.1419372789
H                72.9020547133       55.1332136717       53.3802211937
H                75.2074736907       54.6040866781       53.8703526586
H                74.3484536543       53.1973996507       53.5551525467
H                75.3809689660       53.8255624329       52.3947125097
N                67.8806285960       54.5443747547       52.8514928882
C                66.9045709654       54.5278082977       53.9086874542
C                67.5873858347       54.0448840915       55.1852742824
O                68.6090231642       53.3688077413       55.1523274874
C                65.7335075513       53.5985045317       53.5550645466
C                66.1769398187       52.1680796326       53.2999409521
C                65.0057996394       51.2328214915       52.8516976823
O                64.0237341852       51.7587804288       52.2963598783
O                65.1712018232       50.0163531041       53.0693354849
H                68.5873525689       53.8300941218       52.9627681879
H                66.5369362430       55.5446525679       54.0667419882
H                65.0072533179       53.6302202074       54.3686815523
H                65.2377520720       53.9771599951       52.6585372779
H                66.9086380633       52.1424466623       52.4884921921
H                66.6419294396       51.7310714800       54.1859550525
N                66.9386312303       54.3757092816       56.3026335024
C                67.3578755961       54.0077492970       57.6327312934
C                66.1542297769       53.4705142516       58.4111581956
O                65.0028459178       53.7471022349       58.0904241551
C                67.9769530356       55.1965448942       58.4104021457
C                69.2985908739       55.6063086006       57.7703473462
C                67.0123070263       56.3795293390       58.4721957087
H                66.1113639670       54.9507555443       56.2250139611
H                68.1134697406       53.2227824043       57.5139590302
H                68.1648884124       54.8482838934       59.4327565564
H                69.7210249332       56.4583790160       58.2967793052
H                70.0030408810       54.7789396691       57.7840313094
H                69.1346028160       55.8992143081       56.7351594941
H                67.3661986400       57.1151011735       59.1909582400
H                66.9509851168       56.8685226260       57.5007912768
H                66.0125484352       56.0620437564       58.7687131026
N                66.4652655386       52.6902635017       59.4557593892
C                65.4781905783       52.1014344720       60.3407046495
C                65.4697804499       52.8434779743       61.6846204368
O                66.4966644702       52.9993205921       62.3304117380
C                65.8394556802       50.6382545896       60.6295798183
C                65.8397860931       49.7460850679       59.3809984854
C                66.7797092317       48.5589165733       59.5807053399
C                64.4294761508       49.2518848140       59.0714539902
H                67.4307838641       52.5418262458       59.7132573738
H                64.5064198399       52.1881744612       59.8514624158
H                66.8273981502       50.6366632863       61.0952034723
H                65.1323606035       50.2367409324       61.3598518122
H                66.1980347468       50.3349267076       58.5278211864
H                66.7926678280       47.9369988727       58.6894671730
H                67.7928435698       48.8995812862       59.7779847833
H                66.4445936996       47.9566458008       60.4222890374
H                64.4264006464       48.6977582035       58.1366848297
H                64.0716152844       48.5992523908       59.8674664882
H                63.7378951996       50.0865403576       58.9798983563
N                64.2608446126       53.2317794634       62.1095277577
C                64.0401813903       53.8959633727       63.3776700955
C                62.9781990906       53.1167975265       64.1714816727
O                61.7955279992       53.4596127060       64.1690331410
C                63.6271029603       55.3870395235       63.1993026228
O                62.9443362557       55.5584334574       61.9758828577
C                64.8713240604       56.2782137411       63.2497482659
H                63.4841665532       53.2107741487       61.4642541907
H                64.9951484457       53.8642168045       63.9073474900
H                62.9648448866       55.6291481308       64.0407733935
H                62.1457054087       56.1140533675       62.1043283586
H                64.5923746463       57.3112255499       63.0636305525
H                65.3496906412       56.2001640606       64.2208971849
H                65.5725034893       55.9669677342       62.4791164366
N                55.0445569871       52.3319757612       57.6747851609
C                55.6530468637       51.4387809693       58.6518227023
C                55.9361791456       50.0649929187       58.0223024073
O                55.1396880902       49.4987733702       57.2958240068
C                54.7133390329       51.2816158900       59.8644702662
C                55.1206559937       50.1145973941       60.7618683976
C                54.6903999919       52.5785251192       60.6682338209
H                54.0319357869       52.4223862353       57.7063235742
H                56.6066146651       51.8748352286       58.9703956757
H                53.7101952340       51.0733661868       59.4777873098
H                54.4964676227       50.1042715770       61.6513717599
H                54.9976178063       49.1596071893       60.2566610792
H                56.1550806136       50.1986097229       61.0800159588
H                54.0420058982       52.4573395461       61.5319098586
H                55.6953764215       52.8023476501       61.0202828421
H                54.3328259102       53.4001956332       60.0528869524
N                57.1505044898       49.5673294174       58.3203507486
C                57.6018033981       48.2515718720       57.9038688623
C                57.8678192980       47.4158843728       59.1704127173
O                58.7438066074       47.7376737496       59.9512432416
C                58.9308516449       48.3518519424       57.1401974824
C                59.3389828348       47.0107778660       56.5267015855
C                58.6213651967       46.7124083972       55.1934689066
N                59.5789320989       46.4772582650       54.1285472079
C                60.1559498634       45.3147731013       53.8201433244
N                61.1813473854       45.3185745763       52.9697166567
N                59.6895225483       44.1591957361       54.2806394387
H                57.6719008832       49.9744523601       59.0858725436
H                56.8119604489       47.8237469868       57.2787117567
H                58.8455779524       49.1207625626       56.3725875185
H                59.6891352041       48.6712158748       57.8594072061
H                60.4145412393       47.0339230838       56.3490042716
H                59.1550516140       46.2182323048       57.2517721971
H                57.9562624350       45.8569565789       55.2921434294
H                58.0143324595       47.5704441383       54.9003383730
H                60.0270422840       47.3171165450       53.7852943304
H                61.5592527416       46.1798606263       52.6068197668
H                61.6125274671       44.4576569696       52.6740813982
H                58.9890593096       44.1267218277       55.0043046648
H                60.1218533079       43.2906249413       54.0087189185
H                57.5018289932       53.4495571652       47.8718877135
H                58.8611761623       56.5567461329       45.8767059693
H                62.2842560255       61.9616395681       46.4532241840
H                60.1419187537       64.7030307942       47.5347979118
H                59.6722224060       51.9281782729       61.9340288252
H                63.2423347860       52.3130231467       64.7045661696
H                55.3673550819       53.1645789410       57.7869160442
H                57.3184269262       46.6013043454       59.3564971086
