413
Properties=species:S:1:pos:R:3 pbc="F F F"
N      38.46800000      43.54500000      20.05600000 
C      36.88500000      43.75000000      20.30600000 
C      37.27100000      45.21600000      20.31600000 
O      35.24700000      45.78300000      20.29500000 
C      36.54200000      43.05300000      21.62800000 
C      36.54900000      41.67600000      21.70200000 
C      35.58900000      41.36300000      20.77100000 
C      37.26800000      41.17200000      22.43600000 
C      35.39600000      39.60900000      20.61700000 
C      37.40200000      39.32000000      22.44800000 
C      36.51300000      38.91600000      21.63200000 
H      39.09100000      42.98800000      21.11200000 
H      36.52200000      43.39700000      19.69300000 
H      37.37000000      43.62500000      22.64300000 
H      35.63600000      43.69400000      21.98600000 
H      35.01800000      41.72500000      20.26900000 
H      38.11300000      41.42900000      23.14100000 
H      34.94800000      39.37800000      20.15400000 
H      37.85200000      39.07900000      22.86700000 
H      36.34800000      37.98100000      21.46600000 
N      33.58900000      42.49300000      17.33300000 
C      32.50900000      41.73700000      18.19200000 
C      31.18300000      40.98100000      17.67400000 
O      30.86700000      40.39900000      17.96200000 
C      31.84300000      43.54200000      18.60700000 
C      32.79900000      43.86100000      19.71200000 
C      32.00400000      45.22600000      20.02800000 
N      31.86600000      46.14000000      19.49100000 
C      32.21400000      47.50800000      18.54600000 
N      33.30500000      47.10000000      19.04600000 
N      31.61800000      47.83500000      18.18700000 
H      33.81500000      42.93100000      17.11900000 
H      32.65300000      41.42400000      19.11200000 
H      31.58800000      43.87400000      17.78900000 
H      30.92200000      43.15500000      19.15000000 
H      33.11900000      43.53300000      20.16000000 
H      33.58900000      44.44900000      18.98400000 
H      31.21200000      44.81000000      20.86400000 
H      32.90900000      45.76600000      21.09500000 
H      30.46300000      46.38900000      19.25200000 
H      34.25200000      46.49100000      19.60500000 
H      34.28400000      48.06000000      18.46600000 
H      30.93700000      48.06400000      17.84100000 
H      32.29500000      48.78200000      17.50400000 
N      32.41800000      37.44500000      16.87400000 
C      32.45700000      36.62800000      18.17800000 
C      31.26900000      36.03600000      18.70500000 
O      30.80700000      35.38800000      19.12800000 
C      33.53600000      37.25800000      18.94100000 
C      33.41200000      36.25600000      20.51500000 
C      34.80600000      37.32800000      18.67200000 
H      32.82700000      38.32300000      16.97700000 
H      32.78000000      35.55500000      17.76500000 
H      33.21700000      38.08600000      19.33600000 
H      34.28900000      36.71000000      21.06200000 
H      32.59500000      36.25400000      20.78100000 
H      33.81400000      35.15600000      20.06300000 
H      35.59300000      37.36900000      19.12000000 
H      35.15500000      35.88700000      18.00200000 
H      34.92700000      37.78800000      17.55300000 
N      30.21200000      37.67900000      18.68000000 
C      28.85100000      37.31500000      19.26800000 
C      28.08100000      35.83800000      18.27500000 
O      27.63400000      35.28600000      19.00700000 
C      28.32200000      38.59700000      18.99600000 
C      26.67700000      38.27400000      19.76400000 
C      25.91900000      39.69000000      19.38100000 
O      25.89300000      39.98000000      18.25300000 
N      25.35500000      40.27600000      20.98100000 
H      30.53800000      38.24500000      18.36600000 
H      28.98700000      36.86100000      20.23800000 
H      28.65500000      39.17700000      19.44800000 
H      28.02900000      38.69700000      18.06800000 
H      26.35100000      37.60000000      19.49200000 
H      26.96500000      38.24300000      20.96400000 
H      25.64300000      39.94000000      21.35300000 
H      24.92900000      41.00500000      20.33500000 
N      29.56100000      32.62800000      19.32000000 
C      28.84600000      32.11000000      20.31000000 
C      27.55700000      31.28600000      20.33000000 
O      27.28600000      30.72200000      20.52900000 
C      28.89400000      33.24400000      21.65100000 
C      30.22700000      33.05900000      22.20500000 
C      30.58100000      31.82500000      23.41400000 
C      31.32000000      34.24500000      22.13500000 
C      31.89700000      32.08300000      23.71600000 
C      32.58400000      34.10500000      22.65900000 
C      32.92800000      32.88800000      23.81800000 
H      29.84100000      33.51400000      19.26100000 
H      29.59900000      31.05700000      20.80900000 
H      28.78900000      33.88500000      21.30400000 
H      28.27000000      32.78500000      22.31900000 
H      29.91400000      31.27400000      23.34400000 
H      31.03800000      34.77400000      21.48800000 
H      32.07900000      31.12500000      24.57200000 
H      33.12500000      34.72900000      22.62500000 
H      33.60200000      32.95300000      24.06300000 
N      26.78600000      32.44200000      19.66900000 
C      25.29200000      31.98300000      19.41100000 
C      25.18400000      30.94900000      18.93900000 
O      23.99500000      30.14200000      19.06600000 
C      24.75400000      33.22000000      18.71200000 
O      24.86800000      33.25300000      17.32000000 
H      27.16500000      33.41900000      19.30500000 
H      24.92700000      32.03500000      20.53100000 
H      23.60200000      33.14100000      18.86200000 
H      24.93400000      34.30000000      19.27400000 
H      25.95300000      33.13300000      17.20300000 
N      22.86800000      25.55200000      27.88200000 
C      22.90000000      26.51900000      27.86400000 
C      21.87200000      27.07400000      29.00900000 
O      22.35400000      28.81900000      29.60200000 
C      21.98100000      27.02200000      26.78800000 
C      21.43800000      28.46400000      26.38000000 
C      22.41100000      29.22900000      26.23900000 
N      22.20000000      31.07300000      26.12700000 
C      21.85000000      31.78800000      26.91200000 
N      21.80500000      30.77900000      28.91000000 
N      21.59800000      33.04000000      27.12500000 
H      22.57800000      24.73500000      27.11300000 
H      23.53400000      27.15500000      27.81200000 
H      22.44300000      26.76400000      25.73200000 
H      20.94200000      26.43700000      26.64200000 
H      20.87900000      28.62400000      25.70800000 
H      20.79500000      28.79100000      27.35900000 
H      23.36900000      29.35900000      27.40800000 
H      23.19700000      29.22400000      25.62100000 
H      22.23900000      31.15000000      25.55100000 
H      21.93200000      30.26600000      28.67700000 
H      21.43400000      31.69800000      29.21000000 
H      21.69700000      33.27600000      26.19900000 
H      21.51600000      33.43800000      27.72100000 
N      23.24900000      33.14000000      33.31700000 
C      23.49400000      34.64000000      33.25600000 
C      24.61800000      34.78800000      32.72000000 
O      24.90100000      35.89300000      32.14900000 
C      23.20900000      34.75600000      34.84000000 
C      22.70500000      33.44700000      35.35000000 
C      23.20500000      32.32200000      34.47100000 
H      22.76400000      34.92300000      32.88600000 
H      24.62500000      34.49700000      35.23200000 
H      23.25800000      35.47600000      35.01600000 
H      22.77100000      33.31300000      36.33900000 
H      21.58800000      33.80900000      35.21600000 
H      23.69200000      31.94400000      34.71800000 
H      22.14700000      31.57200000      34.37300000 
N      25.97100000      34.31700000      32.51800000 
C      27.03800000      34.17100000      32.29800000 
C      26.93400000      34.52400000      30.57000000 
O      27.55900000      35.28000000      30.06000000 
C      28.20400000      33.22000000      32.55900000 
C      28.58900000      33.34900000      34.08300000 
C      29.19100000      32.13200000      34.53900000 
C      29.20900000      34.59000000      34.12000000 
H      25.59500000      32.89200000      33.09700000 
H      27.34800000      35.32700000      32.49500000 
H      27.68200000      32.31300000      32.26400000 
H      28.93800000      33.42900000      32.08200000 
H      27.31200000      33.15000000      34.66500000 
H      29.44900000      32.11600000      35.42900000 
H      28.75000000      31.10900000      34.11600000 
H      30.29200000      32.17100000      33.82500000 
H      29.43200000      34.52100000      35.67000000 
H      29.79800000      34.72800000      33.92400000 
H      28.36500000      35.47300000      34.35900000 
N      26.40400000      33.39200000      30.17900000 
C      26.16400000      33.36000000      28.52800000 
C      25.58900000      34.58300000      28.12200000 
O      25.76900000      35.31200000      27.24900000 
C      25.76300000      32.17000000      28.10000000 
C      24.82400000      32.37900000      26.72600000 
C      26.07200000      30.85300000      28.60500000 
H      25.90900000      32.64300000      30.57700000 
H      27.15300000      33.45000000      28.15100000 
H      24.42200000      32.07200000      28.88600000 
H      24.66900000      31.29400000      26.35700000 
H      24.40700000      32.98200000      26.58700000 
H      26.04200000      32.59200000      26.10300000 
H      25.78200000      30.09400000      28.14300000 
H      27.32100000      30.97500000      27.66300000 
H      26.61400000      30.83600000      29.45200000 
N      24.27800000      34.90600000      28.98800000 
C      23.52800000      35.92300000      28.70500000 
C      24.07800000      37.05500000      28.72600000 
O      24.22800000      38.36500000      27.55800000 
C      22.40000000      35.88700000      29.67000000 
O      21.56200000      34.84500000      29.13800000 
C      21.42200000      37.39700000      29.49500000 
H      24.07800000      34.35000000      29.65600000 
H      23.17000000      35.90800000      27.55900000 
H      22.73400000      36.02700000      30.52800000 
H      21.80700000      34.00700000      30.16600000 
H      20.55300000      37.04700000      29.94400000 
H      21.80300000      37.92200000      29.46800000 
H      21.03600000      37.12600000      28.15900000 
N      25.21700000      37.54600000      29.81400000 
C      25.76700000      38.73400000      29.82300000 
C      27.00700000      38.78400000      28.58900000 
O      26.97400000      39.91000000      28.19800000 
C      26.59800000      38.60300000      31.20000000 
H      25.07300000      36.75000000      30.49200000 
H      25.22100000      39.49600000      29.83600000 
H      27.27700000      39.52900000      31.26600000 
H      25.89000000      38.61000000      32.03600000 
H      27.23600000      37.73100000      31.22600000 
N      27.47100000      37.57500000      28.44100000 
C      28.49300000      37.78400000      27.38500000 
C      27.91700000      38.31300000      26.07600000 
O      28.33500000      38.91500000      25.43400000 
C      29.05200000      36.18700000      27.14800000 
C      29.85100000      36.16300000      26.10500000 
C      31.41600000      36.99500000      26.06300000 
C      30.34600000      34.80700000      25.80300000 
H      27.36500000      36.86900000      28.88400000 
H      29.28200000      38.46700000      27.59700000 
H      29.65800000      36.10200000      28.12700000 
H      28.27900000      35.63000000      27.14100000 
H      29.39300000      36.25900000      25.10500000 
H      31.76600000      36.98500000      25.15700000 
H      30.65100000      38.34900000      25.89000000 
H      31.60500000      37.08300000      26.84600000 
H      31.13200000      34.54500000      25.18600000 
H      31.25400000      34.55000000      26.95500000 
H      29.79000000      34.03200000      26.06400000 
N      26.61700000      37.52400000      25.54300000 
C      26.10900000      37.89000000      24.56500000 
C      25.70600000      39.52700000      24.69700000 
O      26.03700000      40.09200000      23.37600000 
C      24.81600000      37.04500000      24.28500000 
C      25.46000000      35.62600000      24.26300000 
C      23.69500000      34.86500000      23.73300000 
C      26.07900000      35.57200000      22.66600000 
H      26.32900000      36.83300000      26.30800000 
H      26.88400000      37.73000000      23.57400000 
H      24.21300000      37.21900000      25.17500000 
H      24.28500000      37.55500000      23.35100000 
H      25.61200000      35.33300000      24.61100000 
H      24.03400000      33.76500000      23.78400000 
H      23.23200000      35.01000000      25.09300000 
H      23.19600000      35.19400000      23.24600000 
H      25.98300000      34.28600000      22.43100000 
H      25.24600000      35.91600000      21.78700000 
H      26.70900000      35.84100000      22.69400000 
N      25.33300000      39.93600000      25.32600000 
C      24.81400000      41.13600000      25.41600000 
C      26.35900000      42.12300000      25.51300000 
O      25.99900000      43.34700000      24.84500000 
H      25.10200000      39.29900000      26.39100000 
H      24.28700000      41.51200000      24.87500000 
H      24.38900000      41.54400000      26.69800000 
N      27.04300000      41.95200000      25.85000000 
C      28.35300000      42.49600000      25.90800000 
C      28.85800000      43.31900000      24.74400000 
O      29.41700000      43.93500000      24.40300000 
C      29.69000000      42.11500000      26.77500000 
H      27.29400000      40.86900000      26.49400000 
H      28.16800000      43.67000000      26.49900000 
H      30.33100000      42.47400000      26.72400000 
H      29.25000000      41.71300000      27.68900000 
H      29.81000000      41.02600000      26.16100000 
N      28.62500000      42.30600000      23.63000000 
C      28.80800000      42.54500000      22.03100000 
C      28.03400000      43.64300000      21.82600000 
O      28.56800000      44.11100000      20.42100000 
C      28.90300000      41.27200000      21.25900000 
C      29.89400000      40.26600000      21.74700000 
C      31.07300000      40.33900000      21.49600000 
C      29.83800000      38.80800000      22.40100000 
C      32.06700000      39.71400000      21.76700000 
C      30.17500000      38.39200000      22.58200000 
C      31.36100000      37.93000000      22.48300000 
H      27.95800000      41.33100000      23.75600000 
H      29.97800000      42.83900000      22.30100000 
H      27.81700000      40.94200000      21.47700000 
H      28.91100000      41.55000000      20.51900000 
H      31.46700000      41.30100000      21.07500000 
H      28.17700000      38.89200000      22.59900000 
H      33.19400000      39.62000000      21.59200000 
H      30.01100000      37.16000000      23.10800000 
H      32.41300000      37.54200000      22.66800000 
N      27.05700000      43.95400000      22.01000000 
C      26.11100000      44.67600000      21.18400000 
C      26.14500000      45.90900000      21.51200000 
O      25.29900000      47.06000000      22.12300000 
C      24.54700000      44.14700000      21.74600000 
C      23.77000000      44.89600000      20.82100000 
O      23.93100000      45.24700000      19.72900000 
O      22.06000000      44.65500000      21.44600000 
H      26.67400000      43.54500000      23.17600000 
H      26.06300000      44.45600000      20.49500000 
H      24.55600000      43.29000000      21.90300000 
H      24.36900000      44.62700000      22.92500000 
N      27.40800000      46.79600000      20.84600000 
C      27.70400000      48.00800000      20.99700000 
C      28.01800000      48.36000000      19.58000000 
O      29.06800000      47.67600000      18.92900000 
C      28.88800000      48.19200000      21.93400000 
O      28.31600000      47.99500000      23.21100000 
C      29.39200000      49.60200000      21.93400000 
H      27.89400000      45.94100000      20.55700000 
H      26.75200000      48.61400000      21.24400000 
H      29.58000000      47.67800000      21.72600000 
H      28.86300000      48.04100000      23.86400000 
H      29.96200000      49.91900000      22.64600000 
H      29.69300000      49.99200000      20.87900000 
H      28.25900000      50.50500000      22.06000000 
N      32.74000000      48.28700000      26.22800000 
C      32.42900000      47.13100000      25.74400000 
C      33.47000000      46.20200000      25.61800000 
O      33.20900000      45.11300000      25.92900000 
C      31.82700000      47.37700000      24.26400000 
H      32.71700000      49.43400000      25.64700000 
H      31.51300000      46.84100000      26.23900000 
H      31.46400000      46.61400000      23.81300000 
H      30.99800000      48.31600000      24.26000000 
H      32.62800000      47.88200000      23.62000000 
N      34.18100000      44.38100000      29.08600000 
C      32.83700000      44.03500000      29.44000000 
C      33.12800000      42.45900000      28.93200000 
O      32.80300000      41.51500000      29.26300000 
C      31.76600000      44.53000000      29.09200000 
H      33.77700000      45.87200000      28.40200000 
H      33.06300000      43.66100000      30.29100000 
H      30.79200000      43.88400000      29.32500000 
H      31.57100000      45.51100000      29.59500000 
H      31.57200000      44.80500000      27.90000000 
N      33.27800000      42.75100000      27.10900000 
C      33.58400000      41.06700000      26.70200000 
C      34.21200000      40.41900000      27.25300000 
O      34.19300000      39.21700000      27.44200000 
C      33.66400000      41.72700000      25.07200000 
C      32.32000000      42.11600000      24.36100000 
C      34.09000000      40.16900000      24.41200000 
C      32.75200000      43.14000000      23.18800000 
H      33.43500000      43.41200000      26.88000000 
H      32.37900000      40.83800000      26.70000000 
H      34.64000000      42.38400000      25.19600000 
H      31.89700000      41.54000000      24.29500000 
H      32.10500000      43.06200000      25.16700000 
H      34.35200000      40.57800000      23.45200000 
H      35.09200000      39.95700000      24.88400000 
H      33.47900000      39.66600000      24.52700000 
H      32.14100000      43.36600000      22.73400000 
H      33.72300000      43.74600000      23.35400000 
H      33.48700000      42.11200000      22.36900000 
N      33.40400000      38.90000000      30.58400000 
C      32.48800000      37.88100000      30.28100000 
C      32.99100000      36.69200000      30.09800000 
O      32.63200000      35.68000000      30.41900000 
C      31.47100000      38.72500000      29.63200000 
H      33.36700000      39.91000000      29.96800000 
H      32.05000000      37.79300000      31.51700000 
H      30.40500000      37.54000000      29.43000000 
H      30.87400000      39.33600000      29.92200000 
H      31.66000000      38.72700000      28.64500000 
N      34.02200000      36.85900000      28.84000000 
C      34.35900000      35.43300000      28.67300000 
C      35.26300000      35.15500000      29.44300000 
O      35.22600000      33.50900000      29.80800000 
C      35.19400000      35.92800000      27.09800000 
C      34.58000000      36.03000000      26.22800000 
C      36.53000000      34.67800000      26.92000000 
C      35.47800000      36.73200000      24.65400000 
H      34.15500000      37.69900000      28.52000000 
H      33.87200000      34.95100000      28.17700000 
H      36.21400000      36.80100000      27.60300000 
H      34.05600000      35.51800000      25.79800000 
H      33.85200000      37.13500000      26.46600000 
H      36.80800000      34.83600000      26.11500000 
H      36.94300000      34.41200000      27.72800000 
H      35.53700000      33.70800000      26.77200000 
H      34.77500000      37.16400000      24.16900000 
H      36.07300000      37.81600000      25.33100000 
H      35.99800000      36.16300000      24.60500000 
N      33.02600000      33.35600000      31.95900000 
C      32.15100000      31.91000000      31.40800000 
C      33.49500000      30.92200000      31.48000000 
O      33.20600000      29.54500000      31.88300000 
C      32.37400000      32.23000000      30.07000000 
C      31.35100000      30.68800000      29.23200000 
C      30.40500000      30.19900000      30.11900000 
C      30.79500000      31.12600000      27.90500000 
H      33.02300000      33.93200000      31.32700000 
H      31.73900000      31.61500000      31.93100000 
H      31.05500000      33.07100000      29.99300000 
H      32.76000000      32.56300000      29.39800000 
H      32.21800000      30.26000000      29.20600000 
H      29.83600000      29.48500000      29.43200000 
H      30.61800000      29.95600000      30.96100000 
H      29.45500000      31.15200000      30.26900000 
H      30.66200000      30.46700000      27.35000000 
H      30.03600000      32.06400000      27.95600000 
H      31.97300000      31.93100000      27.19600000 
H      38.59271831      43.00608728      19.34605745 
H      38.23573297      45.47895499      20.32804032 
H      34.40670932      42.34069085      17.67673447 
H      30.70166737      41.31458554      16.86342021 
H      32.86418527      37.00320748      16.22922246 
H      28.19433633      35.78963549      17.28262117 
H      30.34815724      32.19583833      19.25983542 
H      25.93645162      30.56138262      18.40648772 
H      23.68914145      25.22742856      28.05629889 
H      21.10542352      26.50677278      29.31002124 
H      22.50582315      32.93779809      32.85137938 
H      27.48881412      49.06743592      19.11149522 
H      32.20858652      48.47138627      26.93056773 
H      34.36386138      46.49558560      25.27914998 
H      34.68902685      44.41070658      29.82831142 
H      35.00056056      40.78659928      27.74599392 
H      33.29675512      39.15551491      31.44027721 
H      35.88814619      35.86880415      29.75871486 
H      32.61776951      33.69544635      32.68572143 
H      34.39800793      31.28917263      31.25692840 
