364
Properties=species:S:1:pos:R:3 pbc="F F F"
N      14.62700000      12.50200000      26.52900000 
C      16.27200000      12.30800000      26.71900000 
C      16.63000000      11.26200000      25.86200000 
O      17.62300000      11.28600000      25.07500000 
C      17.02600000      12.24500000      27.91300000 
C      17.31700000      10.97600000      28.72900000 
C      17.27400000      10.90800000      30.12900000 
N      17.99600000      12.08100000      30.70500000 
C      18.55400000      11.94000000      32.12300000 
N      18.56900000      10.83000000      32.68500000 
N      18.88300000      12.94200000      32.75100000 
H      14.36200000      12.24300000      28.07200000 
H      16.49300000      13.34100000      26.10400000 
H      17.88800000      12.99900000      27.88100000 
H      16.34300000      12.98700000      28.82800000 
H      16.68400000      10.28000000      28.24200000 
H      18.33900000      10.75200000      28.19700000 
H      16.43300000      10.82800000      30.42600000 
H      17.85600000       9.93500000      30.37500000 
H      18.05000000      12.71200000      30.47500000 
H      18.30700000       9.81000000      32.29000000 
H      18.92700000      10.70000000      33.72300000 
H      18.75500000      13.96200000      32.22200000 
H      19.30400000      13.01700000      33.56900000 
N      15.71000000      10.11400000      25.75300000 
C      15.91100000       9.01800000      24.93800000 
C      15.88100000       9.16300000      23.37000000 
O      16.26700000       8.71800000      22.76300000 
C      15.48900000       7.82300000      25.65400000 
C      15.67600000       6.38100000      24.88100000 
O      16.86500000       6.21800000      25.02600000 
O      14.83600000       5.69700000      24.53400000 
H      14.95400000      10.14400000      26.29100000 
H      17.16100000       8.72800000      25.05100000 
H      15.37500000       7.75700000      26.49600000 
H      14.09600000       7.97900000      25.30600000 
N      15.06500000       9.95100000      23.23300000 
C      14.65800000      10.71300000      21.68400000 
C      15.87300000      11.27600000      21.06700000 
O      16.22400000      11.26700000      20.37300000 
C      13.43700000      11.46400000      21.78300000 
H      14.38000000      10.77200000      23.97500000 
H      14.66900000       9.66300000      21.16700000 
H      13.18100000      11.57500000      20.53100000 
H      12.46300000      10.60400000      21.92700000 
H      13.27900000      12.11400000      22.17700000 
N      16.19900000      12.37000000      22.56800000 
C      17.76100000      12.90200000      21.96900000 
C      18.64900000      12.16700000      21.52500000 
O      19.49100000      12.30900000      20.40600000 
C      18.10500000      14.07900000      22.94700000 
C      16.89700000      14.86200000      23.42700000 
C      18.97600000      15.03300000      22.51500000 
C      16.10800000      15.84400000      22.56000000 
H      16.10000000      12.39300000      22.93000000 
H      17.34200000      13.64800000      20.77700000 
H      18.44500000      13.61200000      23.63600000 
H      16.20900000      14.29200000      24.03500000 
H      17.33700000      15.60200000      24.23400000 
H      19.39300000      15.70900000      22.90500000 
H      20.08800000      14.45900000      21.96100000 
H      18.70400000      15.56500000      21.27300000 
H      15.27400000      16.31100000      23.07600000 
H      16.63500000      16.49000000      22.02300000 
H      15.55600000      15.15100000      21.77300000 
N      18.84500000      11.03900000      22.19800000 
C      19.92100000       9.91800000      21.91100000 
C      19.81200000       9.51800000      20.40200000 
O      20.77400000       9.46600000      19.75800000 
C      19.70000000       8.88500000      22.75400000 
C      20.91100000       7.64800000      22.65800000 
C      22.22500000       8.17200000      23.05300000 
C      20.58300000       6.57700000      23.70100000 
H      18.34100000      10.82500000      23.03300000 
H      20.92000000      10.48800000      21.93300000 
H      20.00300000       9.28600000      23.95800000 
H      18.91000000       8.43900000      22.88900000 
H      20.77300000       7.38200000      21.70200000 
H      22.99700000       7.31800000      22.74100000 
H      22.62500000       8.98200000      22.14300000 
H      22.44900000       8.51500000      23.84200000 
H      21.21700000       5.71300000      23.43300000 
H      20.59100000       6.80000000      24.58400000 
H      19.53000000       6.14400000      23.41100000 
N      18.49400000       9.33700000      20.29800000 
C      18.25900000       8.86200000      18.69700000 
C      18.75300000       9.84500000      17.52600000 
O      19.25100000       9.26200000      16.38100000 
C      16.97200000       8.34600000      18.19800000 
C      16.56500000       6.89800000      19.27100000 
O      17.50200000       6.16500000      19.35300000 
O      15.54500000       6.90100000      19.49900000 
H      17.95100000       9.32300000      20.39900000 
H      19.17200000       7.72700000      18.47300000 
H      16.33200000       9.03800000      18.65900000 
H      16.87200000       8.03000000      17.42700000 
N      18.80200000      10.88700000      17.87600000 
C      19.33200000      12.01200000      17.03200000 
C      20.76400000      12.24700000      16.45100000 
O      21.07800000      12.78700000      15.95000000 
C      18.81800000      13.55300000      17.51200000 
H      18.53300000      11.34800000      18.81700000 
H      18.73400000      11.89600000      15.91800000 
H      19.03000000      14.17200000      16.89300000 
H      17.70400000      13.41700000      17.66100000 
H      19.22200000      13.58500000      18.42700000 
N      21.43400000      11.19100000      17.56600000 
C      22.96200000      11.23400000      17.06500000 
C      23.30600000       9.86800000      16.57200000 
O      24.53700000       9.48900000      16.40200000 
C      23.70300000      11.46800000      18.51500000 
C      23.91700000      12.77100000      18.98300000 
C      24.19200000      14.02200000      18.02800000 
C      22.55500000      13.17600000      19.79300000 
H      21.05900000      10.70700000      18.13600000 
H      23.17100000      11.83200000      16.45100000 
H      23.48400000      10.70600000      19.21600000 
H      24.86000000      11.07400000      18.10000000 
H      24.71600000      12.73200000      19.74900000 
H      24.53500000      14.75700000      18.47700000 
H      25.28600000      13.56700000      17.42300000 
H      23.58400000      14.04100000      17.32200000 
H      22.91100000      14.21400000      20.37700000 
H      21.88800000      13.50100000      19.13500000 
H      22.35600000      12.55200000      20.45600000 
N      22.03000000       8.92000000      16.14600000 
C      22.63300000       7.65700000      15.51900000 
C      22.50900000       7.35000000      14.25400000 
O      22.78500000       6.67400000      13.58700000 
C      21.82100000       6.56000000      16.59100000 
C      22.02300000       6.60800000      17.77300000 
C      23.37900000       6.05900000      18.15500000 
O      23.96900000       5.48800000      17.51100000 
O      23.79300000       6.62500000      19.37300000 
H      21.39200000       9.21900000      16.34600000 
H      23.49300000       7.44800000      15.79400000 
H      20.46500000       6.83500000      16.14700000 
H      21.89000000       5.62000000      15.85500000 
H      21.69100000       7.43500000      18.33300000 
H      21.24700000       5.72000000      18.29600000 
N      21.34600000       8.75200000      13.51800000 
C      21.26200000       8.52700000      11.99600000 
C      22.52400000       9.17900000      11.52400000 
O      22.42700000       8.93200000       9.92000000 
C      19.96400000       9.15900000      12.08100000 
C      18.97600000       8.47000000      12.27000000 
O      18.63800000       6.96000000      12.20700000 
N      17.76400000       8.81000000      13.08400000 
H      21.23500000       9.09400000      13.97400000 
H      21.29000000       7.35000000      11.76800000 
H      19.93900000       9.94300000      12.04100000 
H      19.80300000       9.08200000      10.57100000 
H      17.11800000       8.54000000      13.47500000 
H      17.99200000      10.09600000      13.20100000 
N      23.11000000       9.82200000      11.80100000 
C      24.20700000      10.63000000      11.34000000 
C      25.54500000      10.06100000      11.17200000 
O      25.67300000       8.44600000      11.95700000 
C      24.68100000      12.06600000      11.93900000 
C      24.62900000      12.00200000      13.68700000 
C      26.23400000      11.51400000      13.92200000 
C      24.35900000      13.40800000      14.15300000 
H      23.14800000       9.94600000      12.95700000 
H      24.08900000      10.82400000      10.36300000 
H      25.26100000      12.49500000      11.62100000 
H      23.55800000      12.52300000      11.80500000 
H      24.01100000      11.30700000      14.02600000 
H      26.15000000      11.66700000      15.15200000 
H      26.35200000      10.69600000      13.75600000 
H      26.80800000      12.29400000      13.66100000 
H      24.45400000      13.41300000      15.16200000 
H      24.91600000      14.15000000      13.69700000 
H      23.24800000      13.60600000      13.90300000 
N      26.74600000       9.97100000      10.64800000 
C      27.87300000       9.45300000      10.28900000 
C      28.80400000      10.02100000      11.30600000 
O      28.82100000      10.89300000      12.01800000 
C      28.39900000       9.66600000       9.05400000 
O      28.76200000      11.05800000       8.74900000 
C      27.18800000       9.31600000       7.80500000 
H      26.53200000      11.24700000      10.11100000 
H      27.55100000       8.41100000      10.47500000 
H      29.15100000       9.05400000       8.74600000 
H      28.95400000      11.31500000       8.06100000 
H      27.72000000       9.47000000       6.83400000 
H      26.92400000       8.38100000       7.91800000 
H      26.44800000      10.03300000       7.90800000 
N      30.09500000      13.28800000      10.44800000 
C      29.56000000      14.57100000      10.89600000 
C      29.62200000      14.75200000      12.33400000 
O      29.66200000      16.14900000      12.69500000 
C      27.84600000      13.98100000      10.43000000 
C      27.15300000      15.54200000      10.65900000 
C      26.22400000      16.03500000      11.76800000 
O      26.86800000      15.22300000      12.94500000 
O      25.84200000      16.76000000      11.81100000 
H      29.83500000      12.62300000      10.22900000 
H      29.66800000      15.41200000      10.27700000 
H      27.98300000      13.76800000       9.59500000 
H      27.59800000      13.44800000      11.14100000 
H      27.48700000      16.16300000      10.04300000 
H      26.02200000      15.08900000       9.79800000 
N      29.88300000      14.00300000      13.23000000 
C      29.98200000      14.22500000      14.70500000 
C      31.05600000      15.12600000      14.83700000 
O      30.81300000      16.03000000      15.79400000 
C      30.22900000      12.59700000      15.07000000 
C      30.20900000      12.62000000      16.95800000 
C      31.53600000      13.08200000      17.47100000 
C      29.31300000      13.17400000      17.48000000 
H      29.77200000      12.76400000      12.76200000 
H      29.09700000      14.47300000      14.95100000 
H      29.45000000      12.09100000      14.95400000 
H      31.12000000      12.30400000      14.87200000 
H      30.20700000      11.50900000      16.97100000 
H      31.65400000      12.72800000      18.46000000 
H      32.53600000      12.54900000      16.86700000 
H      31.76900000      14.13700000      17.38100000 
H      29.05100000      12.97300000      18.53500000 
H      29.07500000      14.34900000      17.44700000 
H      28.04300000      12.83500000      17.02800000 
N      29.08500000      10.54600000      21.30900000 
C      27.57100000      10.79800000      21.19000000 
C      26.94100000      10.58100000      22.49800000 
O      25.80200000      11.42300000      22.86600000 
C      27.13200000      10.26000000      20.01100000 
H      29.45500000      10.06500000      20.65300000 
H      27.41100000      12.11400000      21.00600000 
H      25.94100000      10.27500000      19.98100000 
H      27.44600000      10.42800000      19.16200000 
H      27.24700000       9.04600000      20.18000000 
N      27.33700000       9.39800000      23.03900000 
C      26.33000000       9.23300000      24.32500000 
C      26.42300000      10.15600000      25.75200000 
O      25.95400000      10.35700000      26.00300000 
C      26.88400000       7.58900000      24.74900000 
C      27.04800000       6.66400000      23.79900000 
C      27.37700000       5.22200000      24.51500000 
C      25.65800000       6.50100000      23.02400000 
H      27.88400000       9.01300000      22.85600000 
H      25.52400000       9.07600000      24.16600000 
H      27.94900000       7.81600000      25.36400000 
H      26.27200000       7.43700000      25.60300000 
H      27.86900000       6.87700000      23.07700000 
H      27.59000000       4.51600000      23.70700000 
H      28.37300000       5.39200000      25.05200000 
H      26.66300000       4.97200000      25.09800000 
H      25.87200000       5.64100000      22.20100000 
H      25.00700000       6.20100000      23.53000000 
H      25.53300000       7.29700000      22.44600000 
N      24.76800000      13.43700000      25.14800000 
C      23.64900000      13.53100000      25.77500000 
C      23.77600000      13.49900000      27.06500000 
O      22.40300000      14.60200000      27.78800000 
C      22.47900000      12.37100000      25.22600000 
O      23.28500000      10.97200000      25.87500000 
C      22.53300000      12.00500000      23.51300000 
H      25.23300000      12.70400000      24.59300000 
H      22.98600000      14.45400000      25.25200000 
H      21.74100000      12.54000000      25.53700000 
H      23.75700000      10.88300000      25.79300000 
H      22.00100000      11.50300000      23.51300000 
H      22.26300000      13.11600000      23.25000000 
H      23.47300000      11.90200000      23.31800000 
N      18.38700000      21.67300000      20.40500000 
C      19.20000000      20.64700000      19.39900000 
C      18.63100000      20.92100000      17.94700000 
O      19.21000000      20.80000000      17.21300000 
C      18.59000000      19.34900000      19.94900000 
O      19.12500000      19.19600000      21.34100000 
C      18.91400000      18.25300000      19.13900000 
H      18.02600000      21.61400000      21.03800000 
H      19.96600000      20.76100000      19.44400000 
H      17.37000000      19.39300000      20.11100000 
H      18.60800000      19.63200000      22.00800000 
H      18.71400000      17.27900000      19.65100000 
H      18.53400000      18.25200000      18.21700000 
H      20.08700000      18.22100000      19.01900000 
N      19.74600000      17.21900000       7.50700000 
C      19.10200000      16.11600000       7.61600000 
C      17.63400000      16.03800000       7.86600000 
O      17.23400000      16.70200000       8.64400000 
C      19.77300000      15.01600000       8.31800000 
C      21.46700000      14.92500000       7.87100000 
C      22.26000000      14.00300000       9.27300000 
O      21.89100000      13.05400000       9.35400000 
N      22.99400000      14.95800000       9.53200000 
H      19.76000000      17.79300000       8.73600000 
H      19.34700000      15.80500000       6.35800000 
H      19.87900000      15.45400000       9.44400000 
H      19.31400000      14.10500000       8.38600000 
H      21.29200000      14.06500000       7.06600000 
H      21.75100000      15.59500000       7.60300000 
H      23.26400000      15.79600000       9.31900000 
H      23.52600000      14.61000000      10.28800000 
N      16.49300000      13.62600000       9.34600000 
C      15.85800000      13.28700000      10.49100000 
C      15.76100000      14.65700000      11.85600000 
O      15.19000000      14.13300000      12.86500000 
C      17.04700000      12.50200000      11.26100000 
C      18.47800000      12.98800000      11.05600000 
S      19.45800000      12.78500000      12.71000000 
C      18.52500000      13.88800000      13.74400000 
H      16.72900000      13.62200000       8.94500000 
H      15.00500000      12.80900000      10.76100000 
H      16.81800000      12.06800000      12.02000000 
H      16.98500000      11.48200000      10.43500000 
H      19.02400000      12.58300000      10.34600000 
H      18.39900000      14.04200000      10.88800000 
H      19.28900000      14.14100000      14.67000000 
H      18.42200000      15.00600000      13.23600000 
H      17.62300000      13.59400000      14.11800000 
N      12.25700000      14.31800000      12.09000000 
C      11.72200000      12.98600000      12.88800000 
C      11.85800000      13.30800000      14.58200000 
O      11.18500000      12.93400000      15.09300000 
C      12.56800000      11.78300000      12.38400000 
C      12.32700000      10.78500000      13.42100000 
C      13.30600000      10.38600000      14.41800000 
O      14.61100000      10.78100000      14.36600000 
N      12.94600000       9.93200000      15.52100000 
H      12.84000000      14.24700000      11.54500000 
H      10.77300000      12.80500000      12.77700000 
H      12.42200000      11.76600000      11.38200000 
H      13.80800000      12.20100000      12.47600000 
H      11.53500000      10.50900000      13.47000000 
H      12.71700000       9.64800000      12.46300000 
H      11.81000000       9.66200000      15.59500000 
H      13.38500000       9.80600000      16.31300000 
N      13.11500000      14.02700000      14.86500000 
C      13.28200000      14.29300000      16.29400000 
C      12.18100000      15.07800000      16.67700000 
O      11.43600000      14.91300000      17.89500000 
C      14.61900000      14.82400000      16.44000000 
C      14.87600000      15.08300000      17.90700000 
C      14.74800000      14.08800000      18.89100000 
C      16.05200000      16.10100000      18.42300000 
H      13.74600000      14.26700000      14.19100000 
H      13.07700000      13.33500000      16.81200000 
H      15.29200000      14.20800000      16.26900000 
H      14.71400000      15.76100000      15.95200000 
H      13.83600000      15.95300000      18.41500000 
H      15.00100000      14.18700000      19.96900000 
H      13.78100000      13.46000000      18.86500000 
H      15.52700000      13.20100000      18.53900000 
H      16.18300000      16.25500000      19.20100000 
H      16.97700000      15.47800000      17.87700000 
H      16.02300000      16.96100000      17.69300000 
H      14.45632720      13.32724807      26.21303098 
H      29.68420565       9.57944467      11.47997383 
H      30.58253342      13.41001311       9.70139169 
H      31.86133918      15.03320836      14.25149294 
H      29.52087108      11.33336687      21.31735532 
H      27.31312868      10.35303232      26.16291263 
H      24.80827828      14.06933623      24.50883761 
H      24.50416894      12.95535483      27.48239659 
H      18.94633681      22.31601508      20.69426446 
H      17.68209020      21.21358002      17.82881743 
H      20.58402667      17.05099602       7.22506746 
H      17.06964873      15.40439651       7.33679848 
H      15.91563317      14.04001688       8.79351691 
H      16.12894350      15.56923311      11.67586581 
H      11.57522262      14.68964326      11.63496056 
H      11.86275422      15.81669540      16.08282096 
