480
Properties=species:S:1:pos:R:3 pbc="F F F"
N      45.17100000      48.76500000      64.83100000 
C      45.12800000      47.52200000      65.54300000 
C      44.26300000      47.78100000      66.76100000 
O      44.51900000      48.69000000      67.48300000 
C      46.52500000      47.14900000      66.00500000 
C      46.59900000      45.91900000      66.88700000 
C      46.00800000      44.69700000      66.21100000 
C      48.05600000      45.66600000      67.24500000 
H      45.60300000      49.52500000      65.30500000 
H      44.69500000      46.76900000      64.90000000 
H      47.12800000      46.99100000      65.11900000 
H      46.92900000      47.99900000      66.52500000 
H      46.04200000      46.11100000      67.80500000 
H      46.17200000      43.81800000      66.79500000 
H      44.95200000      44.79800000      66.02600000 
H      46.50000000      44.55700000      65.24000000 
H      48.14200000      44.82200000      67.93500000 
H      48.61600000      45.44100000      66.36400000 
H      48.49500000      46.53300000      67.72300000 
N      53.35800000      43.37000000      74.17700000 
C      54.51100000      44.04200000      73.63000000 
C      54.19400000      44.39700000      72.23600000 
O      53.75400000      43.51500000      71.46300000 
C      55.70500000      43.08300000      73.66400000 
C      56.07400000      42.66100000      75.04200000 
C      55.37500000      41.63000000      75.67700000 
C      57.08200000      43.30700000      75.71400000 
C      55.70300000      41.25800000      76.97500000 
C      57.41700000      42.93900000      76.99800000 
C      56.72000000      41.91100000      77.64800000 
O      57.08600000      41.59400000      78.91400000 
H      53.09700000      42.49100000      73.77100000 
H      54.72900000      44.90700000      74.23700000 
H      55.45700000      42.24400000      73.03700000 
H      56.54700000      43.59700000      73.19900000 
H      54.58500000      41.12300000      75.16500000 
H      57.60000000      44.09900000      75.24400000 
H      55.17600000      40.47500000      77.46300000 
H      58.19900000      43.43900000      77.54100000 
H      56.41200000      41.20900000      79.44700000 
N      54.36500000      45.65000000      71.87100000 
C      53.98900000      46.14800000      70.55200000 
C      55.12600000      47.02200000      70.09600000 
O      55.29400000      48.13800000      70.60200000 
C      52.66800000      46.91400000      70.61700000 
C      51.53700000      46.02400000      71.15800000 
C      52.28300000      47.46500000      69.26200000 
C      50.97500000      46.51000000      72.46100000 
H      54.77200000      46.28600000      72.50700000 
H      53.89500000      45.30400000      69.90000000 
H      52.82300000      47.72400000      71.30900000 
H      50.76000000      45.97200000      70.41900000 
H      51.89800000      44.99800000      71.26900000 
H      51.43700000      48.12800000      69.36800000 
H      53.08300000      48.01700000      68.80000000 
H      51.99800000      46.66200000      68.60800000 
H      50.12700000      45.89800000      72.78100000 
H      51.71300000      46.48300000      73.24800000 
H      50.62900000      47.52000000      72.36500000 
N      55.95900000      46.50100000      69.19400000 
C      57.20300000      47.12100000      68.85300000 
C      57.37000000      47.05400000      67.37400000 
O      57.20300000      45.96300000      66.79200000 
C      58.33900000      46.42700000      69.56600000 
O      58.09300000      46.60100000      70.92800000 
C      59.70800000      47.00100000      69.19800000 
H      55.76500000      45.57700000      68.82400000 
H      57.16900000      48.15100000      69.19100000 
H      58.31200000      45.37300000      69.31000000 
H      58.65300000      46.06200000      71.49200000 
H      60.45300000      46.56600000      69.83600000 
H      59.96200000      46.79200000      68.16700000 
H      59.69200000      48.07200000      69.34700000 
N      57.71300000      48.15100000      66.71400000 
C      57.77400000      48.13400000      65.27200000 
C      58.86700000      49.00300000      64.76900000 
O      59.39300000      49.91200000      65.44900000 
C      56.43200000      48.52700000      64.65300000 
C      55.99800000      49.91500000      64.93000000 
C      56.15900000      50.98400000      64.10900000 
C      55.21800000      50.39300000      66.07700000 
N      55.55500000      52.09700000      64.64100000 
C      54.96100000      51.77000000      65.85300000 
C      54.75600000      49.81200000      67.24000000 
C      54.24600000      52.52300000      66.74400000 
C      54.03800000      50.57400000      68.14400000 
C      53.78800000      51.92900000      67.88500000 
H      57.83100000      49.02100000      67.19500000 
H      57.99400000      47.12500000      64.98600000 
H      56.47600000      48.35100000      63.60800000 
H      55.71000000      47.84700000      65.06000000 
H      56.66900000      51.03600000      63.17300000 
H      55.51600000      52.98400000      64.22700000 
H      54.95000000      48.77300000      67.45100000 
H      54.05000000      53.57500000      66.55300000 
H      53.68600000      50.13500000      69.04500000 
H      53.22100000      52.48800000      68.59700000 
N      56.87800000      46.29300000      59.23000000 
C      56.88100000      45.37400000      60.33200000 
C      56.15600000      45.91200000      61.52600000 
O      56.01800000      47.14100000      61.72100000 
C      58.29200000      44.96600000      60.79300000 
C      59.15300000      44.50400000      59.65800000 
O      58.68500000      43.78100000      58.77800000 
N      60.38500000      44.89700000      59.69200000 
H      56.23200000      46.11500000      58.49800000 
H      56.38300000      44.47500000      59.98000000 
H      58.75100000      45.77700000      61.31900000 
H      58.17100000      44.13500000      61.48200000 
H      61.02500000      44.59700000      59.00300000 
H      60.75200000      45.52200000      60.44100000 
N      55.74100000      44.99800000      62.36600000 
C      55.20400000      45.26900000      63.69000000 
C      55.21800000      43.91500000      64.37400000 
O      54.75600000      42.94300000      63.82600000 
C      53.80000000      45.86300000      63.60600000 
C      52.97300000      45.72300000      64.89200000 
C      53.62700000      46.34200000      66.09200000 
C      51.62500000      46.38800000      64.66800000 
H      55.75900000      44.03300000      62.09400000 
H      55.87200000      45.93800000      64.19500000 
H      53.90400000      46.90100000      63.35600000 
H      53.28700000      45.37500000      62.81100000 
H      52.82700000      44.67200000      65.06600000 
H      53.04700000      46.13400000      66.97700000 
H      54.62900000      45.98900000      66.27800000 
H      53.67400000      47.42400000      65.98800000 
H      50.93600000      46.11800000      65.46400000 
H      51.73200000      47.44800000      64.66200000 
H      51.17500000      46.07900000      63.72600000 
N      55.80800000      43.90000000      65.57000000 
C      55.95000000      42.70600000      66.34100000 
C      55.03600000      42.77800000      67.55900000 
O      55.20300000      43.76900000      68.32300000 
C      57.38600000      42.55800000      66.80900000 
O      58.19800000      42.45900000      65.63900000 
H      56.23200000      44.72500000      65.94600000 
H      55.67300000      41.86000000      65.73100000 
H      57.65600000      43.43300000      67.38300000 
H      57.48600000      41.67700000      67.40600000 
H      59.10900000      42.70200000      65.80600000 
N      54.17500000      41.89200000      67.71500000 
C      53.23200000      41.87400000      68.83100000 
C      53.36200000      40.55400000      69.56000000 
O      53.25500000      39.46900000      68.94700000 
C      51.79800000      42.06600000      68.36200000 
C      50.81700000      41.86400000      69.50200000 
C      51.65800000      43.44900000      67.77300000 
H      54.08600000      41.11700000      67.06100000 
H      53.51100000      42.66300000      69.48300000 
H      51.60000000      41.32100000      67.58800000 
H      49.81300000      41.99800000      69.16100000 
H      50.89700000      40.87200000      69.93500000 
H      51.01100000      42.58400000      70.29000000 
H      50.66200000      43.58600000      67.34800000 
H      51.78300000      44.19900000      68.55100000 
H      52.37400000      43.63600000      67.00700000 
N      53.56900000      40.65600000      70.84900000 
C      53.62700000      39.50500000      71.73600000 
C      52.61800000      39.71300000      72.82600000 
O      52.69400000      40.76800000      73.54000000 
C      55.02100000      39.40500000      72.36100000 
C      55.10300000      38.47100000      73.53600000 
C      56.47500000      38.58000000      74.18000000 
C      56.48800000      37.97300000      75.56900000 
N      57.80500000      38.22800000      76.22400000 
H      53.66600000      41.55500000      71.26300000 
H      53.38300000      38.63600000      71.17600000 
H      55.71000000      39.10100000      71.58100000 
H      55.29700000      40.38100000      72.68200000 
H      54.35700000      38.73200000      74.27200000 
H      54.90700000      37.43900000      73.24800000 
H      57.22100000      38.10600000      73.57200000 
H      56.72900000      39.62300000      74.27300000 
H      55.74500000      38.44500000      76.19700000 
H      56.32200000      36.91200000      75.55300000 
H      57.86300000      37.80500000      77.13300000 
H      58.55700000      37.82600000      75.65900000 
H      57.97600000      39.20500000      76.30800000 
N      51.73400000      38.80400000      73.00400000 
C      50.74400000      38.85600000      74.06400000 
C      50.89200000      37.61200000      74.89300000 
O      50.71900000      36.49300000      74.34600000 
C      49.33200000      39.01600000      73.47600000 
C      49.24600000      40.40300000      72.87500000 
C      48.29000000      38.75300000      74.55000000 
C      47.99900000      40.64400000      72.04500000 
H      51.62100000      38.04100000      72.35100000 
H      50.96100000      39.70800000      74.67800000 
H      49.23400000      38.27300000      72.68900000 
H      49.30500000      41.12600000      73.67300000 
H      50.11200000      40.56300000      72.24800000 
H      47.30800000      38.95300000      74.17700000 
H      48.32000000      37.72800000      74.86900000 
H      48.46500000      39.38300000      75.40300000 
H      48.01400000      41.63600000      71.62800000 
H      47.94000000      39.94400000      71.24300000 
H      47.10100000      40.55400000      72.64600000 
N      51.23800000      37.76200000      76.11400000 
C      51.48000000      36.63100000      76.99600000 
C      50.65300000      36.74500000      78.22100000 
O      50.44700000      37.85000000      78.78500000 
C      52.94500000      36.47300000      77.36400000 
C      53.55200000      37.61400000      78.14100000 
C      54.89500000      37.15400000      78.64300000 
N      55.59300000      38.14400000      79.42000000 
C      56.80900000      37.95000000      79.84600000 
N      57.52000000      36.90100000      79.41800000 
N      57.39000000      38.82300000      80.67500000 
H      51.35300000      38.68000000      76.51100000 
H      51.16700000      35.75500000      76.46200000 
H      53.04100000      35.55800000      77.92000000 
H      53.49800000      36.34400000      76.43800000 
H      53.64300000      38.50000000      77.53900000 
H      52.93400000      37.86800000      78.99500000 
H      54.77200000      36.26300000      79.22000000 
H      55.50200000      36.89700000      77.77300000 
H      55.09900000      38.94000000      79.78000000 
H      57.07100000      36.16700000      78.93800000 
H      58.42400000      36.73200000      79.76400000 
H      56.86800000      39.60500000      80.99100000 
H      58.31700000      38.68000000      80.99600000 
N      52.72500000      32.41400000      79.72400000 
C      52.47300000      31.55200000      78.61300000 
C      52.26400000      32.45900000      77.41400000 
O      51.26800000      33.22700000      77.44700000 
C      51.26500000      30.67700000      78.91200000 
C      50.99400000      29.58000000      77.90700000 
C      49.76800000      28.74400000      78.31000000 
N      49.49900000      28.67900000      79.72800000 
C      50.21800000      27.97100000      80.59200000 
N      49.77300000      27.80300000      81.83900000 
N      51.38000000      27.43300000      80.19100000 
H      52.07300000      33.15400000      79.90200000 
H      53.34900000      30.93900000      78.43600000 
H      51.47400000      30.24200000      79.87300000 
H      50.40000000      31.33200000      79.02500000 
H      50.79800000      30.00500000      76.93100000 
H      51.86400000      28.95900000      77.80900000 
H      48.87800000      29.18700000      77.87600000 
H      49.86100000      27.75600000      77.91800000 
H      48.65600000      29.08200000      80.05900000 
H      48.89200000      28.11100000      82.12300000 
H      50.35000000      27.21400000      82.46200000 
H      51.76600000      27.59700000      79.43600000 
H      51.85500000      26.89800000      80.95500000 
N      53.08100000      32.47500000      76.45400000 
C      52.80500000      33.28200000      75.26700000 
C      51.48700000      32.78400000      74.72800000 
O      51.30800000      31.55100000      74.56500000 
C      53.88200000      33.05300000      74.21100000 
O      55.12600000      33.19000000      74.90400000 
C      53.75500000      34.09100000      73.11700000 
H      53.94700000      31.94900000      76.45000000 
H      52.74900000      34.30200000      75.52700000 
H      53.79000000      32.07200000      73.83200000 
H      55.86400000      32.92200000      74.34800000 
H      54.47900000      33.88800000      72.33400000 
H      52.77200000      34.07600000      72.68100000 
H      53.94500000      35.06700000      73.52100000 
N      50.54700000      33.67800000      74.42500000 
C      49.27100000      33.28000000      73.97800000 
C      49.05500000      33.63200000      72.51900000 
O      48.51900000      32.82400000      71.75100000 
C      48.14100000      33.85900000      74.81500000 
C      46.79100000      33.34400000      74.33300000 
C      48.33500000      33.46400000      76.26700000 
H      50.72900000      34.66000000      74.60300000 
H      49.21200000      32.20500000      74.02800000 
H      48.15900000      34.93600000      74.73700000 
H      45.99300000      33.74800000      74.94700000 
H      46.59700000      33.60700000      73.30700000 
H      46.76000000      32.26400000      74.41600000 
H      47.49200000      33.76500000      76.86400000 
H      48.43600000      32.38600000      76.34500000 
H      49.22800000      33.89800000      76.67300000 
N      49.43400000      34.84500000      72.12700000 
C      49.24700000      35.25000000      70.76600000 
C      50.46800000      35.98300000      70.33000000 
O      50.92800000      36.92400000      70.99400000 
C      47.97300000      36.06600000      70.54500000 
C      47.49000000      36.01300000      69.14800000 
C      47.45600000      37.13300000      68.31500000 
C      47.02400000      34.79900000      68.63100000 
C      46.97900000      37.04400000      67.02400000 
C      46.54000000      34.70200000      67.34100000 
C      46.52100000      35.84500000      66.53300000 
O      46.03900000      35.71200000      65.25600000 
H      49.86600000      35.50000000      72.77800000 
H      49.15300000      34.34700000      70.19600000 
H      47.22500000      35.65300000      71.21500000 
H      48.14900000      37.09300000      70.86700000 
H      47.80400000      38.07100000      68.69700000 
H      47.03100000      33.93700000      69.25200000 
H      46.94900000      37.90700000      66.39600000 
H      46.16800000      33.79200000      66.95700000 
H      45.89700000      36.55800000      64.79500000 
N      51.03300000      35.57000000      69.20500000 
C      52.24800000      36.10200000      68.69400000 
C      52.21000000      35.93500000      67.19300000 
O      51.89900000      34.82800000      66.71500000 
C      53.42600000      35.32200000      69.25000000 
C      54.77200000      35.77900000      68.71300000 
C      55.92800000      34.93800000      69.16400000 
O      55.67900000      33.80100000      69.70700000 
O      57.08600000      35.39400000      68.96600000 
H      50.64900000      34.76600000      68.73100000 
H      52.31900000      37.15300000      68.94300000 
H      53.41100000      35.43500000      70.33100000 
H      53.28700000      34.27900000      69.02700000 
H      54.77100000      35.75100000      67.63100000 
H      54.96900000      36.81300000      68.98800000 
N      52.52800000      36.97100000      66.48600000 
C      52.72600000      36.94200000      65.05000000 
C      53.79900000      37.93800000      64.73800000 
O      53.99800000      38.90000000      65.49000000 
C      51.47200000      37.34300000      64.26600000 
C      50.24400000      36.53900000      64.54600000 
C      49.09800000      36.96700000      63.64200000 
C      48.89700000      38.46100000      63.71700000 
N      47.73000000      38.86600000      62.88000000 
H      52.77600000      37.83600000      66.92300000 
H      53.02900000      35.93700000      64.77000000 
H      51.29800000      38.38800000      64.51600000 
H      51.72200000      37.30600000      63.21100000 
H      50.44600000      35.47300000      64.37600000 
H      49.95000000      36.64000000      65.57300000 
H      49.32700000      36.70100000      62.60200000 
H      48.18200000      36.45700000      63.92000000 
H      48.67500000      38.77300000      64.72700000 
H      49.74900000      38.99400000      63.35900000 
H      47.73200000      39.88500000      62.77900000 
H      47.82700000      38.49000000      61.94000000 
H      46.84400000      38.58100000      63.28100000 
N      54.45600000      37.76600000      63.60100000 
C      55.45800000      38.67300000      63.15200000 
C      55.07700000      39.27400000      61.82900000 
O      54.18900000      38.75800000      61.10300000 
C      56.78600000      37.96100000      63.02000000 
O      56.58700000      37.02300000      61.94800000 
C      57.20800000      37.28300000      64.28600000 
H      54.27000000      36.97400000      63.02100000 
H      55.55100000      39.45300000      63.87600000 
H      57.54300000      38.69200000      62.69700000 
H      57.35800000      36.46600000      61.79500000 
H      58.16800000      36.78500000      64.13400000 
H      57.29900000      37.98000000      65.08100000 
H      56.47600000      36.52900000      64.54300000 
N      55.75900000      40.35600000      61.47200000 
C      55.78600000      40.86700000      60.12400000 
C      54.39500000      40.89000000      59.56200000 
O      54.11400000      40.44800000      58.43400000 
C      56.74000000      40.05600000      59.28600000 
C      58.16400000      40.17600000      59.76600000 
O      58.37300000      40.75200000      60.88400000 
O      59.06100000      39.67800000      59.01700000 
H      56.54500000      40.63300000      62.01400000 
H      56.13600000      41.87700000      60.18100000 
H      56.45200000      39.01500000      59.31300000 
H      56.69600000      40.36200000      58.24800000 
N      53.47500000      41.42500000      60.34100000 
C      52.08200000      41.11100000      60.13300000 
C      51.47300000      42.05800000      59.12600000 
O      51.78800000      43.26100000      59.07400000 
C      51.37900000      40.91100000      61.48800000 
C      51.61500000      41.98200000      62.54800000 
C      51.07800000      43.31800000      62.13700000 
C      51.03600000      41.54100000      63.87100000 
H      53.75800000      41.80900000      61.22700000 
H      52.09200000      40.14200000      59.66800000 
H      50.30900000      40.82300000      61.30800000 
H      51.72900000      39.97400000      61.85400000 
H      52.69000000      42.07800000      62.70500000 
H      51.25600000      44.05500000      62.90800000 
H      51.51300000      43.66800000      61.22200000 
H      49.99500000      43.25000000      61.98700000 
H      51.20600000      42.28100000      64.61900000 
H      49.96100000      41.38400000      63.77900000 
H      51.47900000      40.60900000      64.20900000 
N      50.64800000      41.54800000      58.22000000 
C      50.26700000      42.40200000      57.09300000 
C      49.51900000      43.63100000      57.51100000 
O      48.67300000      43.60500000      58.44500000 
C      49.39600000      41.48100000      56.23700000 
C      49.96800000      40.11100000      56.53400000 
C      50.24800000      40.16400000      58.02000000 
H      51.15400000      42.70600000      56.56500000 
H      48.38900000      41.53600000      56.55200000 
H      49.46100000      41.76000000      55.19300000 
H      49.29400000      39.30800000      56.26900000 
H      50.90400000      39.95900000      55.99000000 
H      49.36400000      39.94600000      58.59200000 
H      51.02800000      39.48400000      58.30600000 
N      42.30400000      45.53300000      61.98300000 
C      42.58700000      44.28900000      62.67300000 
C      42.15300000      44.43600000      64.09400000 
O      42.48100000      45.43200000      64.75600000 
C      44.07800000      43.97400000      62.62900000 
C      44.36300000      42.62700000      63.22300000 
C      45.82400000      42.26100000      63.11600000 
N      46.31500000      42.27800000      61.76500000 
C      46.14600000      41.30100000      60.87600000 
N      45.48400000      40.20200000      61.22100000 
N      46.68000000      41.41600000      59.67000000 
H      42.66000000      46.38600000      62.40100000 
H      42.02900000      43.52000000      62.19300000 
H      44.36600000      43.97600000      61.58600000 
H      44.61700000      44.74000000      63.13200000 
H      44.09100000      42.59600000      64.28300000 
H      43.75600000      41.85400000      62.73900000 
H      46.42300000      42.98200000      63.66400000 
H      46.01000000      41.28900000      63.56700000 
H      46.77100000      43.10400000      61.43700000 
H      44.97600000      40.10000000      62.08400000 
H      45.40900000      39.46100000      60.57100000 
H      47.24000000      42.19000000      59.40900000 
H      46.50600000      40.71900000      58.97500000 
N      42.19400000      42.13300000      67.56300000 
C      42.55300000      40.94600000      68.28100000 
C      41.84000000      41.02000000      69.61400000 
O      42.02200000      41.99500000      70.36400000 
C      44.07300000      40.80100000      68.37200000 
C      44.61100000      40.46700000      66.99500000 
C      44.44800000      39.73400000      69.40500000 
C      46.12600000      40.50900000      66.89100000 
H      42.50800000      43.01200000      67.90400000 
H      42.15900000      40.09100000      67.73800000 
H      44.47200000      41.74200000      68.68400000 
H      44.26600000      39.46700000      66.72900000 
H      44.18200000      41.14700000      66.27000000 
H      45.52200000      39.61500000      69.42300000 
H      44.12700000      39.99500000      70.37200000 
H      44.01500000      38.78600000      69.12700000 
H      46.44200000      40.30900000      65.89400000 
H      46.49000000      41.48300000      67.17500000 
H      46.58000000      39.78800000      67.54000000 
N      41.09800000      33.46200000      71.51200000 
C      41.66300000      34.58100000      70.84500000 
C      41.11600000      34.65200000      69.44900000 
O      41.20000000      33.65200000      68.71100000 
C      43.19000000      34.44600000      70.75900000 
C      43.78800000      35.71800000      70.14100000 
C      43.81000000      34.15000000      72.11100000 
H      41.37900000      32.53800000      71.20000000 
H      41.39600000      35.46900000      71.39800000 
H      43.39600000      33.62100000      70.10400000 
H      44.85100000      35.60700000      70.05900000 
H      43.38100000      35.91100000      69.17100000 
H      43.58000000      36.57000000      70.78100000 
H      44.87800000      34.11000000      72.01200000 
H      43.56600000      34.92300000      72.83300000 
H      43.45300000      33.20300000      72.50700000 
N      41.28900000      37.03900000      65.85500000 
C      42.01700000      38.06700000      65.12300000 
C      41.18600000      38.35200000      63.92400000 
O      41.21200000      37.60400000      62.91000000 
C      43.38500000      37.52100000      64.81400000 
C      44.31700000      38.38400000      64.03600000 
O      43.88700000      39.39100000      63.42600000 
O      45.52500000      38.01400000      64.03800000 
H      41.14900000      36.16200000      65.39100000 
H      42.06500000      38.92000000      65.74100000 
H      43.86900000      37.26600000      65.75300000 
H      43.28500000      36.58400000      64.26400000 
H      45.62971001      48.65635542      64.06433091 
H      43.48102533      47.18835152      66.95408910 
H      53.49719688      43.19618644      75.04901667 
H      59.21986756      48.87651762      63.84191495 
H      56.68380440      47.11951270      59.52860479 
H      50.23969101      35.92798552      78.62307339 
H      52.74164375      31.92961818      80.48235166 
H      49.68563686      44.50025100      57.04555950 
H      42.65779989      45.50501990      61.15593123 
H      41.59196052      43.72704687      64.52134079 
H      42.51725476      42.08616381      66.72436257 
H      41.22211736      40.28453246      69.89204413 
H      41.31308614      33.49276708      72.38537927 
H      40.69020261      35.49532063      69.12111756 
H      41.72951454      36.84226769      66.61476532 
H      40.58788100      39.15326976      63.90915299 
