 327 
 
N               164.4058401022       75.7230180541       87.9182392531
C               165.7339291729       75.1540394474       87.8304011642
C               166.0461426234       74.4258128543       89.1424626089
O               165.2329279088       74.3832388859       90.0581238230
C               166.7701805293       76.2172223731       87.4237101918
O               166.9987952652       77.2149792956       88.3818966362
H               164.2881781059       76.6500443004       88.3464038079
H               165.6931535422       74.3852919149       87.0458133580
H               167.7044892553       75.7201445935       87.1303618230
H               166.3684348355       76.7461403333       86.5567706581
H               167.4012264620       76.8532612868       89.1830057435
N               167.2371681882       73.8038900956       89.2531439760
C               167.4350755721       72.9334289684       90.3964928937
C               167.3871562305       73.7106870975       91.7178873259
O               166.8320828149       73.2318313644       92.6938355361
C               168.7099351731       72.1104520395       90.2541393297
C               168.4791838020       70.9998629537       89.2270720688
C               169.7618212369       70.2598412134       88.9052475704
O               170.4588453249       70.5782832521       87.9505483383
N               170.0659610124       69.2491096900       89.7153621467
H               167.9160441819       73.7936528247       88.5083086470
H               166.5746151710       72.2499193001       90.4585965786
H               169.5391796660       72.7528905624       89.9483199042
H               168.9649364215       71.6828457303       91.2258997250
H               167.7373653499       70.3005908492       89.6100432044
H               168.1042614916       71.4235640473       88.2951528829
H               169.5581229575       69.0616946281       90.5678326876
H               170.8496197872       68.6457736621       89.4997454215
N               167.9717880359       74.9115404511       91.7017681970
C               167.9162224656       75.8352523463       92.8156960465
C               166.4658989812       76.1204475078       93.2266442627
O               166.1087996416       76.0836841758       94.3994508508
C               168.6016618133       77.1364930892       92.3829004341
O               168.1347671271       77.4618226284       91.0876309246
H               168.3680138223       75.2713372486       90.8453841961
H               168.4163253848       75.3871224165       93.6849420332
H               168.3614127732       77.9182125608       93.1082914541
H               169.6874688851       76.9809561674       92.3614526902
H               168.2861077802       78.3991043890       90.9139950471
N               163.8511741203       74.3338819195       92.7048023247
C               163.3113845959       73.1348303599       93.3051336044
C               163.8156707824       72.9884675028       94.7411787492
O               163.0574174960       72.6293600761       95.6382851870
C               163.6722149849       71.8954651653       92.4936864423
C               163.0486243955       71.8490129006       91.0912896534
C               163.5333885649       70.5835926413       90.3865235941
C               161.5235951703       71.8425950047       91.1671294957
H               164.4433011971       74.2481210651       91.8894242567
H               162.2215678320       73.2429245341       93.3819321158
H               164.7621833560       71.8574152948       92.4205362300
H               163.3299094996       71.0176300307       93.0466638146
H               163.3813363855       72.7233266727       90.5191203690
H               163.1311052331       70.5396980419       89.3787442604
H               164.6194594319       70.5724460436       90.3213732168
H               163.2009889322       69.7152775616       90.9502940894
H               161.0942770055       71.6498370328       90.1876941022
H               161.2034656795       71.0590087495       91.8496636033
H               161.1455273442       72.8014965131       91.5150779122
N               165.1002462986       73.2757293619       94.9463073314
C               165.6711730914       73.1858520084       96.2731967269
C               164.8674820925       74.0485470674       97.2366131763
O               164.5784256113       73.6606502314       98.3655109171
C               167.1223326706       73.6444211999       96.2743551769
C               168.0579192207       72.7258157416       95.4130283692
O               167.7979298618       71.5041848986       95.3966477107
O               168.9995196044       73.2949269642       94.8427961656
H               165.7438539077       73.4115696116       94.1736041463
H               165.6201473654       72.1483186317       96.6364440519
H               167.2002912793       74.6616583792       95.8911569960
H               167.5134827309       73.6183657728       97.2942668721
N               159.2047744688       61.6948576579      103.4178509652
C               160.1985936851       61.4723348436      102.3959645624
C               159.8013919473       62.1112367862      101.0607732741
O               160.3430659108       61.7999821832      100.0086578039
C               160.5401437501       59.9606257722      102.2139297935
O               159.4442008183       59.1456920579      102.5552030924
C               161.7886159582       59.5812679351      103.0031659029
H               158.3730754165       61.1186765068      103.4024058473
H               161.1042353002       61.9925285651      102.7338560860
H               160.7128792441       59.7953851713      101.1419449318
H               159.4275724250       59.0621628654      103.5332560318
H               162.0207379237       58.5318365500      102.8402690284
H               162.6444890938       60.1791604591      102.7059490392
H               161.6021953645       59.7250132572      104.0656073243
N               159.9729863364       64.6035598857       98.3021879063
C               161.1203833885       65.3118262943       97.7857377091
C               160.9539682108       65.6245333550       96.2976203606
O               160.5770433114       64.7701227196       95.5038711534
C               162.4012939082       64.4666464911       97.9612947246
C               163.5940813951       65.3129113841       97.5716428817
O               163.9624769548       65.4056960364       96.4050084524
N               164.1742191378       65.9737285587       98.5743889389
H               159.6370092357       63.8140875542       97.7546453408
H               161.2137214199       66.2440905462       98.3489697413
H               162.4703284837       64.1456146750       98.9992390328
H               162.3515637935       63.5894892110       97.3127700309
H               164.9419579839       66.6230541671       98.4068561755
H               163.8114009199       65.9035659243       99.5091655143
N               161.2926670760       66.8706706931       95.9459158508
C               161.1265387320       67.3597707983       94.5945290536
C               162.4100448517       67.9668528017       94.0187887530
O               162.3848600996       68.8650252970       93.1880263508
C               159.9431818638       68.3404362732       94.4660999537
C               158.6309176050       67.6380277742       94.8016079953
C               160.1409421238       69.5767760099       95.3409208415
H               161.4879794098       67.5511271686       96.6723410931
H               160.9031923488       66.4777550880       93.9781018912
H               159.9214813141       68.6511844733       93.4166127106
H               157.7934643826       68.2565670704       94.4929248018
H               158.5642228097       66.6878619803       94.2774470398
H               158.5661238821       67.4514543421       95.8707840768
H               159.2937532002       70.2461015629       95.2232317244
H               160.2198680970       69.3017602449       96.3893210749
H               161.0398270016       70.1133173577       95.0472847258
N               163.5500589387       67.4396572343       94.4782939962
C               164.8453569407       67.8880966980       94.0247538864
C               165.3738661450       66.9656267606       92.9163830776
O               164.8563650604       65.8938383640       92.6587119061
C               165.8244424645       67.9119282336       95.2016437877
C               165.4121223903       68.9717081266       96.2251107877
C               166.3129750504       68.8935492461       97.4385489323
O               166.1831106320       68.0134488246       98.2895457584
N               167.2278648350       69.8552198074       97.5302215142
H               163.5539612879       66.6489839009       95.1172396476
H               164.7239478081       68.8973918347       93.6115200739
H               165.8200258778       66.9281860165       95.6745646022
H               166.8371913534       68.1203710766       94.8513526423
H               165.4854146256       69.9634141820       95.7801863869
H               164.3822307791       68.7863444914       96.5368652133
H               167.4146105859       70.4950628822       96.7494523322
H               167.8971306396       69.8288123716       98.2842332034
N               166.4184559224       67.4756065391       92.2462635251
C               167.2218794034       66.7090700050       91.3174683518
C               168.6874314343       66.9207117555       91.7213563020
O               169.0581269439       68.0072334601       92.1615834637
C               167.0263628881       67.2056380213       89.8769174056
C               165.5673401409       67.1471672429       89.4334431613
C               165.3347414604       67.9714679447       88.1784713543
O               166.1725591507       68.7241788180       87.7017792883
N               164.1267549021       67.8019984571       87.6224193471
H               166.8401392191       68.3418726916       92.5533197919
H               166.9124681163       65.6653089785       91.4173243587
H               167.3658092028       68.2409610971       89.8186040015
H               167.6538982819       66.6250189404       89.2007900053
H               165.2559274878       66.1174952381       89.2616466020
H               164.9312212688       67.5647485659       90.2185907328
H               163.4133675623       67.2616209600       88.0814851099
H               163.8743085212       68.3657706687       86.8262844429
N               169.4999917737       65.8851783204       91.5357070260
C               170.8875681217       65.8932359407       91.9641708423
C               171.7269653628       66.8331135575       91.1006282590
O               171.6309963069       66.8390862418       89.8767974994
C               171.4416175504       64.4686648108       91.8660294450
C               170.7915522797       63.5841362965       92.9309003660
C               170.8315103698       62.0943329057       92.5932745398
C               170.0356708021       61.3577482801       93.6628600245
N               169.9182485858       59.9007467435       93.4007803678
H               169.1536370737       65.0467042494       91.0925919046
H               170.9138049444       66.2440363624       93.0004514710
H               171.2323885556       64.0977794876       90.8602611702
H               172.5250801465       64.5016072317       91.9858902030
H               171.2768013616       63.7615617753       93.8919699757
H               169.7532299941       63.8974491498       93.0524882833
H               170.3861055635       61.9411616124       91.6096189702
H               171.8661217018       61.7567337032       92.5672045599
H               170.5046130721       61.5120773502       94.6347651035
H               169.0290098085       61.7739284742       93.7109534650
H               169.2168661382       59.5381171340       94.0793743635
H               169.5827258927       59.7378145176       92.4416226355
H               170.8246037476       59.4312562801       93.5235025645
N               172.5906834949       67.6113705817       91.7630686855
C               173.6701847229       68.2664018655       91.0588240476
C               174.6296544664       67.1999166041       90.5113383978
O               174.8167313853       66.1391066088       91.0911971961
C               174.4823707155       69.1652142525       92.0041978967
C               173.8736602857       70.5291834912       92.1666482098
C               172.9252216779       70.7870817248       93.1501820096
C               174.2545102607       71.5656385258       91.3250753437
C               172.3760056002       72.0467780030       93.2973811490
C               173.7334731563       72.8358649643       91.4774936728
C               172.7883264394       73.0859517003       92.4661668584
O               172.2674344237       74.3250035926       92.6566254426
H               172.6671347753       67.5688400131       92.7742961491
H               173.2681070476       68.8538130096       90.2248006981
H               174.5471556488       68.6667578444       92.9727836578
H               175.4888957301       69.2640295858       91.5894603909
H               172.6183376919       69.9874765923       93.8084768977
H               174.9763973642       71.3854985258       90.5423106621
H               171.6082492049       72.2493686513       94.0301529481
H               174.0613892479       73.6350274121       90.8256729506
H               172.6084717389       74.9222079881       91.9757704012
N               174.6244626207       72.3030421069       87.5700764870
C               173.2200464673       72.0520005670       87.3460355996
C               172.9051367405       71.9241457700       85.8526613749
O               173.7548551504       72.0526050099       84.9752077126
C               172.3769905709       73.1442258039       87.9982295109
C               172.6680359719       74.5478692353       87.3919804586
O               172.8095930654       74.6095397153       86.1478114212
O               172.7160875741       75.4990998169       88.1835173847
H               174.9710333665       73.2382058854       87.3878857060
H               172.9864915503       71.0831102248       87.8052096701
H               171.3196217346       72.9268370222       87.8482682437
H               172.5760978000       73.1721986289       89.0700878990
N               171.6183255522       71.6364554001       85.6233900937
C               171.0470782638       71.3617188707       84.3232977052
C               171.3029870937       72.4745829148       83.3074768168
O               171.2082235093       72.2682635412       82.1045034265
C               169.5248751598       71.2634218038       84.4562168836
C               169.0738271049       70.0520241932       85.2756563529
O               169.7697364117       69.0662069361       85.4446971835
N               167.8260108467       70.1743717182       85.7453125664
H               171.0687057995       71.3118056589       86.4131049049
H               171.4418143557       70.4214369203       83.9153839839
H               169.1519328621       72.1889069760       84.8991097911
H               169.1006221698       71.1632755789       83.4544779240
H               167.4022153273       69.4566883179       86.3211551641
H               167.2857535985       70.9984110286       85.5482283503
N               172.7913764540       62.8369029282       98.8535346262
C               171.4006209572       63.2152183218       98.9717666048
C               170.7480641344       63.5894339592       97.6313237182
O               171.3319931601       63.5050258817       96.5651832698
H               172.9955073089       61.8919048485       98.5637197004
H               170.8444503476       62.3908528379       99.4231555403
H               171.3473720604       64.0863779189       99.6327497129
N               169.4807384942       64.0176871142       97.7629290921
C               168.6300941085       64.3798696706       96.6484196628
C               169.2066774918       65.5223775198       95.8070147276
O               168.9446109743       65.6071530398       94.6177960973
C               167.2493167094       64.7485598895       97.1788745132
H               169.0307264893       63.9609118693       98.6648437641
H               168.5461735050       63.5267542714       95.9607515394
H               166.5357716102       64.8428197168       96.3650864502
H               166.9096528382       63.9673135115       97.8550322186
H               167.2846475046       65.6944743616       97.7165836528
N               170.0053334773       66.3885598473       96.4530858608
C               170.7131882704       67.4411956288       95.7653543571
C               172.1917637216       67.1116716393       95.5305693132
O               172.8110853282       67.6739365744       94.6329011198
C               170.5987235697       68.7932063295       96.4775459897
C               171.3618380297       68.8486290129       97.8216762821
O               171.5969762767       69.9770108071       98.2940467903
O               171.6970504870       67.7648800421       98.3461199785
H               170.1481747855       66.3325869949       97.4519480771
H               170.2525073586       67.5391161137       94.7732059818
H               170.9688894879       69.5849703132       95.8235529446
H               169.5471685981       69.0139554044       96.6780270070
N               172.7511827583       66.1832416167       96.3105254544
C               174.1091809441       65.7400290658       96.1407676566
C               175.1310289767       66.3018473084       97.1317843679
O               176.2416778210       65.8043562972       97.2204728413
H               172.2639142792       65.8666093603       97.1352455256
H               174.1376309027       64.6492322150       96.1907023957
H               174.4369535666       66.0510243212       95.1428845098
N               174.0454370969       67.4661366694      100.4095399376
C               173.5670823994       67.3552926915      101.7726202155
C               174.5997612453       66.5490206351      102.5565711275
O               175.1201081635       65.5660084150      102.0415087592
C               172.2158815665       66.6038289186      101.7613956897
O               171.2381589742       67.3010425899      101.0337933876
C               171.6656232857       66.4004847052      103.1696547922
H               173.8392843910       66.6757142946       99.8058926234
H               173.4489426986       68.3595763851      102.1903071373
H               172.4133065664       65.6239718721      101.2936129704
H               171.5416247614       67.4749923034      100.1171138196
H               170.7202096067       65.8707969647      103.1014725101
H               172.3526921818       65.8370708887      103.7936520192
H               171.4776560155       67.3679338976      103.6276922157
N               167.4407673504       59.8162288061      104.6128676590
C               167.3625837257       60.9347867308      103.6893458090
C               166.6623789118       60.5075006385      102.3880325240
O               166.7304624923       59.3689231634      101.9511940147
C               168.7661189562       61.4461826190      103.3815412170
H               168.3454963554       59.4003328139      104.8031439142
H               166.7500153702       61.7108545640      104.1638013109
H               168.7202148898       62.3029347294      102.7160587157
H               169.2700426141       61.7233872119      104.3037351176
H               169.3412650520       60.6607463493      102.8961850410
N               165.9794876942       61.4908087680      101.7662874043
C               165.4019968467       61.2623859575      100.4536437412
C               166.5244555170       61.2144080621       99.4059982596
O               167.3838423180       62.0818239594       99.3398955616
C               164.4163728623       62.3677815991      100.0988839283
H               166.1122397392       62.4501338980      102.0478215939
H               164.8967481705       60.2922847647      100.5004462847
H               163.9123920568       62.1305604518       99.1657691975
H               163.6703946589       62.4655509707      100.8828893823
H               164.9437244334       63.3122990510       99.9771894266
N               166.4591952435       60.1700764488       98.5668521928
C               167.4958315850       59.8600450483       97.6043035348
C               167.0498767737       60.0354390037       96.1497501803
O               167.8586311584       59.9231256333       95.2365770245
C               167.9589939455       58.4147990757       97.8017192201
H               165.8011434583       59.4289242967       98.7642445972
H               168.3201786525       60.5604769120       97.7837969791
H               168.7991941606       58.1985641847       97.1504674764
H               168.2611712138       58.2667154020       98.8351732152
H               167.1430682392       57.7331557118       97.5714085970
N               165.7536678796       60.2608327625       95.9610087685
C               165.1001708126       60.3966746655       94.6841737511
C               163.8521602450       61.2669656979       94.8807818790
O               163.3601584274       61.4547141954       95.9831441635
C               164.6367133753       59.0098435787       94.1452208713
O               164.1052968364       58.3114284070       95.2526499631
C               165.7852511618       58.2452667559       93.4887255018
H               165.1276324983       60.3826890638       96.7478409780
H               165.7837262578       60.8615591767       93.9690822124
H               163.8429416552       59.1901197222       93.4029462446
H               163.7056237866       57.4911655364       94.9410789121
H               165.4250430009       57.2865391291       93.1236982273
H               166.1681249205       58.8139366428       92.6483924101
H               166.5763922299       58.0751049296       94.2117222641
H               164.0615531012       75.8113393320       87.0913983900
H               165.7835723043       76.3434288689       92.5304333618
H               163.1763557843       74.8669258806       92.4393134379
H               164.5600027428       74.9578191273       96.9561122486
H               159.5709447002       61.5564279075      104.2282561514
H               159.0805894719       62.8038085467      101.0326993018
H               160.1664942931       64.2708184721       99.1157220619
H               175.1232309119       67.3626640502       89.6569991436
H               174.8247752224       72.1410787279       88.4324237057
H               171.5527336200       73.3905350750       83.6215760256
H               173.1953734008       63.3636085301       98.2457783627
H               174.8899985918       67.0806383001       97.7109121127
H               173.6736337465       68.1863415588      100.0183019207
H               174.8484567052       66.8238058572      103.4853572439
H               167.1347208267       60.0710477740      105.4199629562
H               163.4160175028       61.7010075390       94.0925007181
